PDE 2015  9 16 22 54 32.90 -31.5700  -71.6700  22.4 0.0 8.3 NEAR COAST OF CENTRAL CH                
event name:     201509162254A  
time shift:       0.0000 
half duration:    3.0000 
latitude:       -31.6283 
longitude:      -71.7378 
depth:           20.4288 
Mrr:       -3.587139e+24 
Mtt:       -2.390940e+26 
Mpp:        2.426811e+26 
Mrt:        2.932995e+25 
Mrp:       -3.962569e+25 
Mtp:        3.018639e+26 
PDE 2015  9 16 22 54 32.90 -31.5700  -71.6700  22.4 0.0 8.3 NEAR COAST OF CENTRAL CH                
event name:     201509162254A  
time shift:       7.9710 
half duration:    6.0000 
latitude:       -31.7885 
longitude:      -71.7597 
depth:           20.4288 
Mrr:       -1.713620e+24 
Mtt:       -1.152422e+26 
Mpp:        1.169558e+26 
Mrt:        1.407065e+25 
Mrp:       -1.890905e+25 
Mtp:        1.454997e+26 
PDE 2015  9 16 22 54 32.90 -31.5700  -71.6700  22.4 0.0 8.3 NEAR COAST OF CENTRAL CH                
event name:     201509162254A  
time shift:       9.5697 
half duration:   15.0000 
latitude:       -31.6429 
longitude:      -71.5900 
depth:           25.3568 
Mrr:       -1.547590e+24 
Mtt:       -1.481172e+26 
Mpp:        1.496648e+26 
Mrt:        1.526062e+25 
Mrp:       -1.618975e+25 
Mtp:        1.871200e+26 
PDE 2015  9 16 22 54 32.90 -31.5700  -71.6700  22.4 0.0 8.3 NEAR COAST OF CENTRAL CH                
event name:     201509162254A  
time shift:       9.5697 
half duration:    7.5000 
latitude:       -31.6137 
longitude:      -71.8857 
depth:           15.5008 
Mrr:       -2.722278e+24 
Mtt:       -1.974878e+26 
Mpp:        2.002101e+26 
Mrt:        2.318837e+25 
Mrp:       -2.974879e+25 
Mtp:        2.493766e+26 
PDE 2015  9 16 22 54 32.90 -31.5700  -71.6700  22.4 0.0 8.3 NEAR COAST OF CENTRAL CH                
event name:     201509162254A  
time shift:      13.1307 
half duration:   15.0000 
latitude:       -31.8031 
longitude:      -71.6118 
depth:           25.3568 
Mrr:       -1.156447e+24 
Mtt:       -7.912832e+25 
Mpp:        8.028477e+25 
Mrt:        9.574301e+24 
Mrp:       -1.273356e+25 
Mtp:        9.990742e+25 
PDE 2015  9 16 22 54 32.90 -31.5700  -71.6700  22.4 0.0 8.3 NEAR COAST OF CENTRAL CH                
event name:     201509162254A  
time shift:      13.3307 
half duration:    1.5000 
latitude:       -31.7739 
longitude:      -71.9075 
depth:           15.5008 
Mrr:       -9.297036e+23 
Mtt:       -7.265341e+25 
Mpp:        7.358311e+25 
Mrt:        8.221153e+24 
Mrp:       -1.005479e+25 
Mtp:        9.175515e+25 
PDE 2015  9 16 22 54 32.90 -31.5700  -71.6700  22.4 0.0 8.3 NEAR COAST OF CENTRAL CH                
event name:     201509162254A  
time shift:      13.7710 
half duration:   15.0000 
latitude:       -31.4680 
longitude:      -71.7160 
depth:           20.4288 
Mrr:       -3.249227e+24 
Mtt:       -2.297752e+26 
Mpp:        2.330244e+26 
Mrt:        2.733255e+25 
Mrp:       -3.562691e+25 
Mtp:        2.901331e+26 
PDE 2015  9 16 22 54 32.90 -31.5700  -71.6700  22.4 0.0 8.3 NEAR COAST OF CENTRAL CH                
event name:     201509162254A  
time shift:      15.3307 
half duration:    1.5000 
latitude:       -31.4826 
longitude:      -71.5682 
depth:           25.3568 
Mrr:        1.370952e+25 
Mtt:       -1.734355e+26 
Mpp:        1.597260e+26 
Mrt:       -4.906331e+25 
Mrp:        1.733465e+26 
Mtp:        2.218020e+26 
PDE 2015  9 16 22 54 32.90 -31.5700  -71.6700  22.4 0.0 8.3 NEAR COAST OF CENTRAL CH                
event name:     201509162254A  
time shift:      17.9307 
half duration:    1.5000 
latitude:       -31.4534 
longitude:      -71.8638 
depth:           15.5008 
Mrr:       -3.577635e+24 
Mtt:       -2.532108e+26 
Mpp:        2.567884e+26 
Mrt:        3.010738e+25 
Mrp:       -3.922355e+25 
Mtp:        3.197253e+26 
PDE 2015  9 16 22 54 32.90 -31.5700  -71.6700  22.4 0.0 8.3 NEAR COAST OF CENTRAL CH                
event name:     201509162254A  
time shift:      18.5421 
half duration:    1.5000 
latitude:       -31.9488 
longitude:      -71.7815 
depth:           20.4288 
Mrr:        9.174505e+23 
Mtt:       -1.196400e+25 
Mpp:        1.104655e+25 
Mrt:       -3.262620e+24 
Mrp:        1.160767e+25 
Mtp:        1.529553e+25 
PDE 2015  9 16 22 54 32.90 -31.5700  -71.6700  22.4 0.0 8.3 NEAR COAST OF CENTRAL CH                
event name:     201509162254A  
time shift:      20.3395 
half duration:   12.0000 
latitude:       -31.5991 
longitude:      -72.0335 
depth:           10.5728 
Mrr:        1.345891e+25 
Mtt:       -1.737592e+26 
Mpp:        1.603003e+26 
Mrt:       -4.796388e+25 
Mrp:        1.702481e+26 
Mtp:        2.221680e+26 
PDE 2015  9 16 22 54 32.90 -31.5700  -71.6700  22.4 0.0 8.3 NEAR COAST OF CENTRAL CH                
event name:     201509162254A  
time shift:      20.7395 
half duration:   13.5000 
latitude:       -31.6575 
longitude:      -71.4422 
depth:           30.2848 
Mrr:       -8.724776e+23 
Mtt:       -5.974569e+25 
Mpp:        6.061817e+25 
Mrt:        7.226058e+24 
Mrp:       -9.605833e+24 
Mtp:        7.543503e+25 
PDE 2015  9 16 22 54 32.90 -31.5700  -71.6700  22.4 0.0 8.3 NEAR COAST OF CENTRAL CH                
event name:     201509162254A  
time shift:      20.9349 
half duration:    3.0000 
latitude:       -31.9634 
longitude:      -71.6337 
depth:           25.3568 
Mrr:        3.952632e+24 
Mtt:       -5.290898e+25 
Mpp:        4.895635e+25 
Mrt:       -1.397715e+25 
Mrp:        5.003656e+25 
Mtp:        6.762398e+25 
PDE 2015  9 16 22 54 32.90 -31.5700  -71.6700  22.4 0.0 8.3 NEAR COAST OF CENTRAL CH                
event name:     201509162254A  
time shift:      21.3275 
half duration:    6.0000 
latitude:       -31.8177 
longitude:      -71.4640 
depth:           30.2848 
Mrr:        5.200686e+20 
Mtt:       -8.369269e+22 
Mpp:        8.317262e+22 
Mrt:        2.609443e+21 
Mrp:        8.129386e+21 
Mtp:        1.059733e+23 
PDE 2015  9 16 22 54 32.90 -31.5700  -71.6700  22.4 0.0 8.3 NEAR COAST OF CENTRAL CH                
event name:     201509162254A  
time shift:      21.9275 
half duration:    6.0000 
latitude:       -31.7593 
longitude:      -72.0553 
depth:           10.5728 
Mrr:        8.419589e+24 
Mtt:       -1.075275e+26 
Mpp:        9.910787e+25 
Mrt:       -3.007307e+25 
Mrp:        1.064797e+26 
Mtp:        1.375001e+26 
PDE 2015  9 16 22 54 32.90 -31.5700  -71.6700  22.4 0.0 8.3 NEAR COAST OF CENTRAL CH                
event name:     201509162254A  
time shift:      22.7349 
half duration:    9.0000 
latitude:       -31.9342 
longitude:      -71.9293 
depth:           15.5008 
Mrr:        2.598875e+21 
Mtt:       -2.037089e+23 
Mpp:        2.011101e+23 
Mrt:        6.031519e+20 
Mrp:        3.630234e+22 
Mtp:        2.581717e+23 
PDE 2015  9 16 22 54 32.90 -31.5700  -71.6700  22.4 0.0 8.3 NEAR COAST OF CENTRAL CH                
event name:     201509162254A  
time shift:      25.3275 
half duration:   15.0000 
latitude:       -31.4388 
longitude:      -72.0117 
depth:           10.5728 
Mrr:        1.027210e+24 
Mtt:       -2.764546e+26 
Mpp:        2.754274e+26 
Mrt:        1.159792e+25 
Mrp:        1.829590e+25 
Mtp:        3.499320e+26 
PDE 2015  9 16 22 54 32.90 -31.5700  -71.6700  22.4 0.0 8.3 NEAR COAST OF CENTRAL CH                
event name:     201509162254A  
time shift:      25.3349 
half duration:    1.5000 
latitude:       -31.3223 
longitude:      -71.5464 
depth:           25.3568 
Mrr:        1.597253e+25 
Mtt:       -2.026714e+26 
Mpp:        1.866989e+26 
Mrt:       -5.712691e+25 
Mrp:        2.019727e+26 
Mtp:        2.591827e+26 
PDE 2015  9 16 22 54 32.90 -31.5700  -71.6700  22.4 0.0 8.3 NEAR COAST OF CENTRAL CH                
event name:     201509162254A  
time shift:      25.5275 
half duration:    6.0000 
latitude:       -31.4972 
longitude:      -71.4204 
depth:           30.2848 
Mrr:       -9.376117e+23 
Mtt:       -1.166742e+26 
Mpp:        1.176119e+26 
Mrt:        1.080736e+25 
Mrp:       -9.265932e+24 
Mtp:        1.474463e+26 
PDE 2015  9 16 22 54 32.90 -31.5700  -71.6700  22.4 0.0 8.3 NEAR COAST OF CENTRAL CH                
event name:     201509162254A  
time shift:      26.4614 
half duration:    4.5000 
latitude:       -31.9780 
longitude:      -71.4859 
depth:           30.2848 
Mrr:        2.739465e+21 
Mtt:       -1.199093e+23 
Mpp:        1.171699e+23 
Mrt:       -4.861386e+21 
Mrp:        3.635595e+22 
Mtp:        1.521780e+23 
PDE 2015  9 16 22 54 32.90 -31.5700  -71.6700  22.4 0.0 8.3 NEAR COAST OF CENTRAL CH                
event name:     201509162254A  
time shift:      27.9421 
half duration:    4.5000 
latitude:       -31.3077 
longitude:      -71.6942 
depth:           20.4288 
Mrr:       -3.273162e+24 
Mtt:       -2.192437e+26 
Mpp:        2.225169e+26 
Mrt:        2.682519e+25 
Mrp:       -3.613561e+25 
Mtp:        2.768051e+26 
PDE 2015  9 16 22 54 32.90 -31.5700  -71.6700  22.4 0.0 8.3 NEAR COAST OF CENTRAL CH                
event name:     201509162254A  
time shift:      28.5092 
half duration:   15.0000 
latitude:       -31.5845 
longitude:      -72.1813 
depth:            5.6448 
Mrr:        2.300256e+25 
Mtt:       -2.921343e+26 
Mpp:        2.691317e+26 
Mrt:       -8.225521e+25 
Mrp:        2.908727e+26 
Mtp:        3.735871e+26 
PDE 2015  9 16 22 54 32.90 -31.5700  -71.6700  22.4 0.0 8.3 NEAR COAST OF CENTRAL CH                
event name:     201509162254A  
time shift:      28.9261 
half duration:    1.5000 
latitude:       -32.1236 
longitude:      -71.6555 
depth:           25.3568 
Mrr:       -1.657773e+24 
Mtt:       -1.168152e+26 
Mpp:        1.184730e+26 
Mrt:        1.392102e+25 
Mrp:       -1.818545e+25 
Mtp:        1.474995e+26 
PDE 2015  9 16 22 54 32.90 -31.5700  -71.6700  22.4 0.0 8.3 NEAR COAST OF CENTRAL CH                
event name:     201509162254A  
time shift:      29.2916 
half duration:    1.5000 
latitude:       -31.4242 
longitude:      -72.1595 
depth:            5.6448 
Mrr:        1.818909e+25 
Mtt:       -3.407091e+26 
Mpp:        3.225200e+26 
Mrt:       -5.868245e+25 
Mrp:        2.322155e+26 
Mtp:        4.342047e+26 
PDE 2015  9 16 22 54 32.90 -31.5700  -71.6700  22.4 0.0 8.3 NEAR COAST OF CENTRAL CH                
event name:     201509162254A  
time shift:      30.0916 
half duration:    1.5000 
latitude:       -31.8323 
longitude:      -71.3162 
depth:           35.2128 
Mrr:        6.210474e+21 
Mtt:       -2.281613e+23 
Mpp:        2.219508e+23 
Mrt:       -1.355317e+22 
Mrp:        8.154043e+22 
Mtp:        2.897349e+23 
PDE 2015  9 16 22 54 32.90 -31.5700  -71.6700  22.4 0.0 8.3 NEAR COAST OF CENTRAL CH                
event name:     201509162254A  
time shift:      30.1131 
half duration:   15.0000 
latitude:       -32.1091 
longitude:      -71.8033 
depth:           20.4288 
Mrr:       -4.273957e+20 
Mtt:       -5.867289e+22 
Mpp:        5.910029e+22 
Mrt:        5.244578e+21 
Mrp:       -4.113156e+21 
Mtp:        7.415512e+22 
PDE 2015  9 16 22 54 32.90 -31.5700  -71.6700  22.4 0.0 8.3 NEAR COAST OF CENTRAL CH                
event name:     201509162254A  
time shift:      30.2614 
half duration:    3.0000 
latitude:       -31.9196 
longitude:      -72.0771 
depth:           10.5728 
Mrr:        3.544505e+24 
Mtt:       -4.855077e+25 
Mpp:        4.500627e+25 
Mrt:       -1.246990e+25 
Mrp:        4.489233e+25 
Mtp:        6.203933e+25 
PDE 2015  9 16 22 54 32.90 -31.5700  -71.6700  22.4 0.0 8.3 NEAR COAST OF CENTRAL CH                
event name:     201509162254A  
time shift:      30.8614 
half duration:   15.0000 
latitude:       -31.3369 
longitude:      -71.3986 
depth:           30.2848 
Mrr:       -1.881991e+24 
Mtt:       -1.350927e+26 
Mpp:        1.369747e+26 
Mrt:        1.594753e+25 
Mrp:       -2.059516e+25 
Mtp:        1.705841e+26 
PDE 2015  9 16 22 54 32.90 -31.5700  -71.6700  22.4 0.0 8.3 NEAR COAST OF CENTRAL CH                
event name:     201509162254A  
time shift:      30.9092 
half duration:    1.5000 
latitude:       -31.6721 
longitude:      -71.2944 
depth:           35.2128 
Mrr:       -2.377252e+23 
Mtt:       -2.224624e+25 
Mpp:        2.248397e+25 
Mrt:        2.314845e+24 
Mrp:       -2.497099e+24 
Mtp:        2.810329e+25 
PDE 2015  9 16 22 54 32.90 -31.5700  -71.6700  22.4 0.0 8.3 NEAR COAST OF CENTRAL CH                
event name:     201509162254A  
time shift:      30.9349 
half duration:   12.0000 
latitude:       -31.2931 
longitude:      -71.8420 
depth:           15.5008 
Mrr:       -4.938369e+24 
Mtt:       -3.322008e+26 
Mpp:        3.371391e+26 
Mrt:        4.055459e+25 
Mrp:       -5.449089e+25 
Mtp:        4.194222e+26 
PDE 2015  9 16 22 54 32.90 -31.5700  -71.6700  22.4 0.0 8.3 NEAR COAST OF CENTRAL CH                
event name:     201509162254A  
time shift:      31.0698 
half duration:    1.5000 
latitude:       -30.9580 
longitude:      -71.9462 
depth:           10.5728 
Mrr:       -4.079591e+24 
Mtt:       -3.297553e+26 
Mpp:        3.338348e+26 
Mrt:        3.670959e+25 
Mrp:       -4.390043e+25 
Mtp:        4.164775e+26 
PDE 2015  9 16 22 54 32.90 -31.5700  -71.6700  22.4 0.0 8.3 NEAR COAST OF CENTRAL CH                
event name:     201509162254A  
time shift:      31.6916 
half duration:    3.0000 
latitude:       -31.7447 
longitude:      -72.2031 
depth:            5.6448 
Mrr:        1.798416e+25 
Mtt:       -2.360901e+26 
Mpp:        2.181059e+26 
Mrt:       -6.386401e+25 
Mrp:        2.275688e+26 
Mtp:        3.018115e+26 
PDE 2015  9 16 22 54 32.90 -31.5700  -71.6700  22.4 0.0 8.3 NEAR COAST OF CENTRAL CH                
event name:     201509162254A  
time shift:      31.8042 
half duration:    4.5000 
latitude:       -32.1383 
longitude:      -71.5077 
depth:           30.2848 
Mrr:        1.860442e+23 
Mtt:       -7.290729e+24 
Mpp:        7.104684e+24 
Mrt:       -3.795805e+23 
Mrp:        2.451851e+24 
Mtp:        9.256112e+24 
PDE 2015  9 16 22 54 32.90 -31.5700  -71.6700  22.4 0.0 8.3 NEAR COAST OF CENTRAL CH                
event name:     201509162254A  
time shift:      31.9261 
half duration:    1.5000 
latitude:       -31.1621 
longitude:      -71.5246 
depth:           25.3568 
Mrr:        2.428265e+24 
Mtt:       -2.338719e+26 
Mpp:        2.314436e+26 
Mrt:        3.087553e+24 
Mrp:        3.479624e+25 
Mtp:        2.963024e+26 
PDE 2015  9 16 22 54 32.90 -31.5700  -71.6700  22.4 0.0 8.3 NEAR COAST OF CENTRAL CH                
event name:     201509162254A  
time shift:      32.7442 
half duration:   15.0000 
latitude:       -31.9926 
longitude:      -71.3380 
depth:           35.2128 
Mrr:        2.388435e+21 
Mtt:       -3.955907e+22 
Mpp:        3.717063e+22 
Mrt:       -8.005977e+21 
Mrp:        3.038818e+22 
Mtp:        5.046271e+22 
PDE 2015  9 16 22 54 32.90 -31.5700  -71.6700  22.4 0.0 8.3 NEAR COAST OF CENTRAL CH                
event name:     201509162254A  
time shift:      34.4614 
half duration:    3.0000 
latitude:       -31.2785 
longitude:      -71.9898 
depth:           10.5728 
Mrr:        2.213067e+24 
Mtt:       -3.301902e+26 
Mpp:        3.279771e+26 
Mrt:        9.599585e+24 
Mrp:        3.407049e+25 
Mtp:        4.181211e+26 
PDE 2015  9 16 22 54 32.90 -31.5700  -71.6700  22.4 0.0 8.3 NEAR COAST OF CENTRAL CH                
event name:     201509162254A  
time shift:      34.4916 
half duration:    4.5000 
latitude:       -31.5118 
longitude:      -71.2726 
depth:           35.2128 
Mrr:        8.557868e+21 
Mtt:       -1.175529e+24 
Mpp:        1.166972e+24 
Mrt:        3.124806e+22 
Mrp:        1.297087e+23 
Mtp:        1.488695e+24 
PDE 2015  9 16 22 54 32.90 -31.5700  -71.6700  22.4 0.0 8.3 NEAR COAST OF CENTRAL CH                
event name:     201509162254A  
time shift:      34.5325 
half duration:    1.5000 
latitude:       -31.4096 
longitude:      -72.3073 
depth:            0.7168 
Mrr:        2.418265e+25 
Mtt:       -3.172427e+26 
Mpp:        2.930601e+26 
Mrt:       -8.588834e+25 
Mrp:        3.059992e+26 
Mtp:        4.055578e+26 
PDE 2015  9 16 22 54 32.90 -31.5700  -71.6700  22.4 0.0 8.3 NEAR COAST OF CENTRAL CH                
event name:     201509162254A  
time shift:      34.7261 
half duration:   15.0000 
latitude:       -32.0944 
longitude:      -71.9511 
depth:           15.5008 
Mrr:       -2.278737e+20 
Mtt:       -2.035777e+22 
Mpp:        2.058565e+22 
Mrt:        2.162880e+21 
Mrp:       -2.413090e+21 
Mtp:        2.571583e+22 
PDE 2015  9 16 22 54 32.90 -31.5700  -71.6700  22.4 0.0 8.3 NEAR COAST OF CENTRAL CH                
event name:     201509162254A  
time shift:      34.8042 
half duration:    1.5000 
latitude:       -31.1183 
longitude:      -71.9680 
depth:           10.5728 
Mrr:        7.232826e+24 
Mtt:       -3.135781e+26 
Mpp:        3.063453e+26 
Mrt:       -1.300972e+25 
Mrp:        9.592753e+25 
Mtp:        3.979767e+26 
PDE 2015  9 16 22 54 32.90 -31.5700  -71.6700  22.4 0.0 8.3 NEAR COAST OF CENTRAL CH                
event name:     201509162254A  
time shift:      35.0042 
half duration:   15.0000 
latitude:       -31.1767 
longitude:      -71.3768 
depth:           30.2848 
Mrr:        1.075491e+25 
Mtt:       -1.362086e+26 
Mpp:        1.254537e+26 
Mrt:       -3.848065e+25 
Mrp:        1.359907e+26 
Mtp:        1.741915e+26 
PDE 2015  9 16 22 54 32.90 -31.5700  -71.6700  22.4 0.0 8.3 NEAR COAST OF CENTRAL CH                
event name:     201509162254A  
time shift:      35.2790 
half duration:    6.0000 
latitude:       -31.5699 
longitude:      -72.3291 
depth:            0.7168 
Mrr:        2.346908e+25 
Mtt:       -2.982822e+26 
Mpp:        2.748131e+26 
Mrt:       -8.391052e+25 
Mrp:        2.967765e+26 
Mtp:        3.814461e+26 
PDE 2015  9 16 22 54 32.90 -31.5700  -71.6700  22.4 0.0 8.3 NEAR COAST OF CENTRAL CH                
event name:     201509162254A  
time shift:      36.1921 
half duration:   13.5000 
latitude:       -32.1529 
longitude:      -71.3599 
depth:           35.2128 
Mrr:        9.133930e+20 
Mtt:       -3.156319e+22 
Mpp:        3.064980e+22 
Mrt:       -2.108859e+21 
Mrp:        1.195224e+22 
Mtp:        4.009053e+22 
PDE 2015  9 16 22 54 32.90 -31.5700  -71.6700  22.4 0.0 8.3 NEAR COAST OF CENTRAL CH                
event name:     201509162254A  
time shift:      36.5261 
half duration:   15.0000 
latitude:       -31.1329 
longitude:      -71.8202 
depth:           15.5008 
Mrr:       -1.297908e+24 
Mtt:       -3.714401e+26 
Mpp:        3.727380e+26 
Mrt:        2.713108e+25 
Mrp:       -8.597315e+24 
Mtp:        4.696979e+26 
PDE 2015  9 16 22 54 32.90 -31.5700  -71.6700  22.4 0.0 8.3 NEAR COAST OF CENTRAL CH                
event name:     201509162254A  
time shift:      36.7131 
half duration:   10.5000 
latitude:       -31.1475 
longitude:      -71.6724 
depth:           20.4288 
Mrr:        5.591605e+24 
Mtt:       -1.697967e+26 
Mpp:        1.642051e+26 
Mrt:       -1.426817e+25 
Mrp:        7.269722e+25 
Mtp:        2.157880e+26 
PDE 2015  9 16 22 54 32.90 -31.5700  -71.6700  22.4 0.0 8.3 NEAR COAST OF CENTRAL CH                
event name:     201509162254A  
time shift:      37.3325 
half duration:    7.5000 
latitude:       -31.8469 
longitude:      -71.1684 
depth:           40.1408 
Mrr:       -1.152288e+21 
Mtt:       -1.692750e+23 
Mpp:        1.704273e+23 
Mrt:        1.478262e+22 
Mrp:       -1.086595e+22 
Mtp:        2.139562e+23 
PDE 2015  9 16 22 54 32.90 -31.5700  -71.6700  22.4 0.0 8.3 NEAR COAST OF CENTRAL CH                
event name:     201509162254A  
time shift:      37.4698 
half duration:    1.5000 
latitude:       -31.0164 
longitude:      -71.3550 
depth:           30.2848 
Mrr:        1.435848e+24 
Mtt:       -1.282467e+26 
Mpp:        1.268109e+26 
Mrt:        1.243435e+24 
Mrp:        2.037290e+25 
Mtp:        1.624994e+26 
PDE 2015  9 16 22 54 32.90 -31.5700  -71.6700  22.4 0.0 8.3 NEAR COAST OF CENTRAL CH                
event name:     201509162254A  
time shift:      37.4988 
half duration:    1.5000 
latitude:       -31.0018 
longitude:      -71.5028 
depth:           25.3568 
Mrr:        2.929303e+24 
Mtt:       -1.557443e+26 
Mpp:        1.528150e+26 
Mrt:       -3.602471e+24 
Mrp:        3.942985e+25 
Mtp:        1.975472e+26 
PDE 2015  9 16 22 54 32.90 -31.5700  -71.6700  22.4 0.0 8.3 NEAR COAST OF CENTRAL CH                
event name:     201509162254A  
time shift:      37.6988 
half duration:   15.0000 
latitude:       -30.9726 
longitude:      -71.7984 
depth:           15.5008 
Mrr:        3.052556e+24 
Mtt:       -3.932072e+26 
Mpp:        3.901547e+26 
Mrt:        9.632949e+24 
Mrp:        4.574077e+25 
Mtp:        4.979923e+26 
PDE 2015  9 16 22 54 32.90 -31.5700  -71.6700  22.4 0.0 8.3 NEAR COAST OF CENTRAL CH                
event name:     201509162254A  
time shift:      37.7442 
half duration:    3.0000 
latitude:       -31.3515 
longitude:      -71.2508 
depth:           35.2128 
Mrr:        1.019502e+23 
Mtt:       -3.514106e+24 
Mpp:        3.412155e+24 
Mrt:       -2.358995e+23 
Mrp:        1.333894e+24 
Mtp:        4.463546e+24 
PDE 2015  9 16 22 54 32.90 -31.5700  -71.6700  22.4 0.0 8.3 NEAR COAST OF CENTRAL CH                
event name:     201509162254A  
time shift:      38.0988 
half duration:    9.0000 
latitude:       -32.2839 
longitude:      -71.6773 
depth:           25.3568 
Mrr:       -1.184010e+24 
Mtt:       -9.312383e+25 
Mpp:        9.430784e+25 
Mrt:        1.050455e+25 
Mrp:       -1.279309e+25 
Mtp:        1.176089e+26 
PDE 2015  9 16 22 54 32.90 -31.5700  -71.6700  22.4 0.0 8.3 NEAR COAST OF CENTRAL CH                
event name:     201509162254A  
time shift:      38.2550 
half duration:    3.0000 
latitude:       -32.0072 
longitude:      -71.1902 
depth:           40.1408 
Mrr:        4.370426e+23 
Mtt:       -5.668163e+24 
Mpp:        5.231120e+24 
Mrt:       -1.556004e+24 
Mrp:        5.528877e+24 
Mtp:        7.246949e+24 
PDE 2015  9 16 22 54 32.90 -31.5700  -71.6700  22.4 0.0 8.3 NEAR COAST OF CENTRAL CH                
event name:     201509162254A  
time shift:      38.2698 
half duration:    3.0000 
latitude:       -32.2985 
longitude:      -71.5295 
depth:           30.2848 
Mrr:        1.175910e+23 
Mtt:       -4.359767e+24 
Mpp:        4.242176e+24 
Mrt:       -2.543187e+23 
Mrp:        1.544711e+24 
Mtp:        5.536143e+24 
PDE 2015  9 16 22 54 32.90 -31.5700  -71.6700  22.4 0.0 8.3 NEAR COAST OF CENTRAL CH                
event name:     201509162254A  
time shift:      38.9442 
half duration:    7.5000 
latitude:       -31.9050 
longitude:      -72.2249 
depth:            5.6448 
Mrr:        1.266014e+25 
Mtt:       -1.602110e+26 
Mpp:        1.475508e+26 
Mrt:       -4.530486e+25 
Mrp:        1.600789e+26 
Mtp:        2.048889e+26 
PDE 2015  9 16 22 54 32.90 -31.5700  -71.6700  22.4 0.0 8.3 NEAR COAST OF CENTRAL CH                
event name:     201509162254A  
time shift:      39.0790 
half duration:   10.5000 
latitude:       -31.6867 
longitude:      -71.1466 
depth:           40.1408 
Mrr:        3.565809e+22 
Mtt:       -1.077484e+24 
Mpp:        1.041826e+24 
Mrt:       -9.129780e+22 
Mrp:        4.634885e+23 
Mtp:        1.369363e+24 
PDE 2015  9 16 22 54 32.90 -31.5700  -71.6700  22.4 0.0 8.3 NEAR COAST OF CENTRAL CH                
event name:     201509162254A  
time shift:      39.5921 
half duration:    3.0000 
latitude:       -31.1913 
longitude:      -71.2290 
depth:           35.2128 
Mrr:        9.103852e+23 
Mtt:       -4.200687e+25 
Mpp:        4.109648e+25 
Mrt:       -1.490417e+24 
Mrp:        1.212537e+25 
Mtp:        5.330271e+25 
PDE 2015  9 16 22 54 32.90 -31.5700  -71.6700  22.4 0.0 8.3 NEAR COAST OF CENTRAL CH                
event name:     201509162254A  
time shift:      39.8842 
half duration:   15.0000 
latitude:       -30.9872 
longitude:      -71.6506 
depth:           20.4288 
Mrr:       -1.857441e+24 
Mtt:       -1.292932e+26 
Mpp:        1.311506e+26 
Mrt:        1.550543e+25 
Mrp:       -2.040782e+25 
Mtp:        1.632511e+26 
PDE 2015  9 16 22 54 32.90 -31.5700  -71.6700  22.4 0.0 8.3 NEAR COAST OF CENTRAL CH                
event name:     201509162254A  
time shift:      39.9488 
half duration:    1.5000 
latitude:       -30.8416 
longitude:      -71.4810 
depth:           25.3568 
Mrr:        2.685143e+24 
Mtt:       -4.069501e+25 
Mpp:        3.800986e+25 
Mrt:       -9.219587e+24 
Mrp:        3.408709e+25 
Mtp:        5.195138e+25 
PDE 2015  9 16 22 54 32.90 -31.5700  -71.6700  22.4 0.0 8.3 NEAR COAST OF CENTRAL CH                
event name:     201509162254A  
time shift:      40.4160 
half duration:   15.0000 
latitude:       -32.3131 
longitude:      -71.3817 
depth:           35.2128 
Mrr:        3.279452e+22 
Mtt:       -4.623090e+23 
Mpp:        4.295145e+23 
Mrt:       -1.146143e+23 
Mrp:        4.156174e+23 
Mtp:        5.905832e+23 
PDE 2015  9 16 22 54 32.90 -31.5700  -71.6700  22.4 0.0 8.3 NEAR COAST OF CENTRAL CH                
event name:     201509162254A  
time shift:      40.5406 
half duration:    7.5000 
latitude:       -32.1675 
longitude:      -71.2121 
depth:           40.1408 
Mrr:        2.152136e+24 
Mtt:       -2.989154e+25 
Mpp:        2.773941e+25 
Mrt:       -7.547485e+24 
Mrp:        2.726583e+25 
Mtp:        3.819089e+25 
PDE 2015  9 16 22 54 32.90 -31.5700  -71.6700  22.4 0.0 8.3 NEAR COAST OF CENTRAL CH                
event name:     201509162254A  
time shift:      40.7325 
half duration:   10.5000 
latitude:       -31.7301 
longitude:      -72.3509 
depth:            0.7168 
Mrr:        1.954350e+25 
Mtt:       -2.499795e+26 
Mpp:        2.304360e+26 
Mrt:       -6.978298e+25 
Mrp:        2.471680e+26 
Mtp:        3.196545e+26 
PDE 2015  9 16 22 54 32.90 -31.5700  -71.6700  22.4 0.0 8.3 NEAR COAST OF CENTRAL CH                
event name:     201509162254A  
time shift:      41.1908 
half duration:   10.5000 
latitude:       -30.8562 
longitude:      -71.3332 
depth:           30.2848 
Mrr:       -1.183194e+22 
Mtt:       -1.564348e+24 
Mpp:        1.576180e+24 
Mrt:        1.417148e+23 
Mrp:       -1.150753e+23 
Mtp:        1.977062e+24 
PDE 2015  9 16 22 54 32.90 -31.5700  -71.6700  22.4 0.0 8.3 NEAR COAST OF CENTRAL CH                
event name:     201509162254A  
time shift:      41.2160 
half duration:    1.5000 
latitude:       -31.0310 
longitude:      -71.2072 
depth:           35.2128 
Mrr:        2.975548e+24 
Mtt:       -5.225940e+25 
Mpp:        4.928385e+25 
Mrt:       -9.801426e+24 
Mrp:        3.791800e+25 
Mtp:        6.663241e+25 
PDE 2015  9 16 22 54 32.90 -31.5700  -71.6700  22.4 0.0 8.3 NEAR COAST OF CENTRAL CH                
event name:     201509162254A  
time shift:      41.5442 
half duration:   15.0000 
latitude:       -31.2639 
longitude:      -72.1376 
depth:            5.6448 
Mrr:        1.297192e+25 
Mtt:       -3.684204e+26 
Mpp:        3.554485e+26 
Mrt:       -3.457837e+25 
Mrp:        1.681362e+26 
Mtp:        4.683570e+26 
PDE 2015  9 16 22 54 32.90 -31.5700  -71.6700  22.4 0.0 8.3 NEAR COAST OF CENTRAL CH                
event name:     201509162254A  
time shift:      42.0552 
half duration:    9.0000 
latitude:       -30.8270 
longitude:      -71.6288 
depth:           20.4288 
Mrr:        1.202422e+22 
Mtt:       -2.614153e+23 
Mpp:        2.493911e+23 
Mrt:       -3.669534e+22 
Mrp:        1.542391e+23 
Mtp:        3.328160e+23 
PDE 2015  9 16 22 54 32.90 -31.5700  -71.6700  22.4 0.0 8.3 NEAR COAST OF CENTRAL CH                
event name:     201509162254A  
time shift:      42.0842 
half duration:   12.0000 
latitude:       -32.2693 
longitude:      -71.8251 
depth:           20.4288 
Mrr:       -4.869506e+22 
Mtt:       -3.493625e+24 
Mpp:        3.542320e+24 
Mrt:        4.125259e+23 
Mrp:       -5.329198e+23 
Mtp:        4.411461e+24 
PDE 2015  9 16 22 54 32.90 -31.5700  -71.6700  22.4 0.0 8.3 NEAR COAST OF CENTRAL CH                
event name:     201509162254A  
time shift:      42.3325 
half duration:   15.0000 
latitude:       -31.5264 
longitude:      -71.1248 
depth:           40.1408 
Mrr:       -4.158313e+23 
Mtt:       -4.061520e+25 
Mpp:        4.103103e+25 
Mrt:        4.147815e+24 
Mrp:       -4.333667e+24 
Mtp:        5.131163e+25 
PDE 2015  9 16 22 54 32.90 -31.5700  -71.6700  22.4 0.0 8.3 NEAR COAST OF CENTRAL CH                
event name:     201509162254A  
time shift:      42.4042 
half duration:    3.0000 
latitude:       -32.0798 
longitude:      -72.0989 
depth:           10.5728 
Mrr:       -6.493616e+23 
Mtt:       -4.599697e+25 
Mpp:        4.664633e+25 
Mrt:        5.466854e+24 
Mrp:       -7.118543e+24 
Mtp:        5.807975e+25 
PDE 2015  9 16 22 54 32.90 -31.5700  -71.6700  22.4 0.0 8.3 NEAR COAST OF CENTRAL CH                
event name:     201509162254A  
time shift:      42.5488 
half duration:    3.0000 
latitude:       -30.8124 
longitude:      -71.7766 
depth:           15.5008 
Mrr:        1.153464e+25 
Mtt:       -2.725810e+26 
Mpp:        2.610464e+26 
Mrt:       -3.393683e+25 
Mrp:        1.483985e+26 
Mtp:        3.468570e+26 
PDE 2015  9 16 22 54 32.90 -31.5700  -71.6700  22.4 0.0 8.3 NEAR COAST OF CENTRAL CH                
event name:     201509162254A  
time shift:      43.1908 
half duration:    7.5000 
latitude:       -30.7978 
longitude:      -71.9244 
depth:           10.5728 
Mrr:       -5.105701e+24 
Mtt:       -3.496324e+26 
Mpp:        3.547381e+26 
Mrt:        4.228676e+25 
Mrp:       -5.621285e+25 
Mtp:        4.414465e+26 
PDE 2015  9 16 22 54 32.90 -31.5700  -71.6700  22.4 0.0 8.3 NEAR COAST OF CENTRAL CH                
event name:     201509162254A  
time shift:      43.3227 
half duration:    9.0000 
latitude:       -32.3277 
longitude:      -71.2339 
depth:           40.1408 
Mrr:        1.595041e+24 
Mtt:       -2.089799e+25 
Mpp:        1.930295e+25 
Mrt:       -5.666579e+24 
Mrp:        2.018258e+25 
Mtp:        2.671600e+25 
PDE 2015  9 16 22 54 32.90 -31.5700  -71.6700  22.4 0.0 8.3 NEAR COAST OF CENTRAL CH                
event name:     201509162254A  
time shift:      44.4160 
half duration:   15.0000 
latitude:       -30.9434 
longitude:      -72.0940 