PDE 2015  9 16 22 54 32.90 -31.5700  -71.6700  22.4 0.0 8.3 NEAR COAST OF CENTRAL CH                
event name:     201509162254A  
time shift:       0.0000 
half duration:    1.5000 
latitude:       -31.6283 
longitude:      -71.7378 
depth:           20.4288 
Mrr:       -3.132710e+24 
Mtt:       -2.102513e+26 
Mpp:        2.133841e+26 
Mrt:        2.569821e+25 
Mrp:       -3.457666e+25 
Mtp:        2.654529e+26 
PDE 2015  9 16 22 54 32.90 -31.5700  -71.6700  22.4 0.0 8.3 NEAR COAST OF CENTRAL CH                
event name:     201509162254A  
time shift:       6.3697 
half duration:    7.5000 
latitude:       -31.6429 
longitude:      -71.5900 
depth:           25.3568 
Mrr:       -1.410856e+24 
Mtt:       -1.875591e+26 
Mpp:        1.889700e+26 
Mrt:        1.695764e+25 
Mrp:       -1.370110e+25 
Mtp:        2.370433e+26 
PDE 2015  9 16 22 54 32.90 -31.5700  -71.6700  22.4 0.0 8.3 NEAR COAST OF CENTRAL CH                
event name:     201509162254A  
time shift:       8.3710 
half duration:    9.0000 
latitude:       -31.7885 
longitude:      -71.7597 
depth:           20.4288 
Mrr:       -1.806905e+24 
Mtt:       -1.226246e+26 
Mpp:        1.244315e+26 
Mrt:        1.490090e+25 
Mrp:       -1.991606e+25 
Mtp:        1.548232e+26 
PDE 2015  9 16 22 54 32.90 -31.5700  -71.6700  22.4 0.0 8.3 NEAR COAST OF CENTRAL CH                
event name:     201509162254A  
time shift:      11.3307 
half duration:   15.0000 
latitude:       -31.8031 
longitude:      -71.6118 
depth:           25.3568 
Mrr:       -1.055252e+24 
Mtt:       -7.110308e+25 
Mpp:        7.215833e+25 
Mrt:        8.672664e+24 
Mrp:       -1.164150e+25 
Mtp:        8.977195e+25 
PDE 2015  9 16 22 54 32.90 -31.5700  -71.6700  22.4 0.0 8.3 NEAR COAST OF CENTRAL CH                
event name:     201509162254A  
time shift:      12.7697 
half duration:    3.0000 
latitude:       -31.6137 
longitude:      -71.8857 
depth:           15.5008 
Mrr:       -1.571748e+23 
Mtt:       -2.066165e+26 
Mpp:        2.067736e+26 
Mrt:        1.265636e+25 
Mrp:        2.215158e+24 
Mtp:        2.613713e+26 
PDE 2015  9 16 22 54 32.90 -31.5700  -71.6700  22.4 0.0 8.3 NEAR COAST OF CENTRAL CH                
event name:     201509162254A  
time shift:      13.1307 
half duration:   15.0000 
latitude:       -31.4826 
longitude:      -71.5682 
depth:           25.3568 
Mrr:        1.316372e+24 
Mtt:       -2.144330e+26 
Mpp:        2.131166e+26 
Mrt:        6.755288e+24 
Mrp:        2.062896e+25 
Mtp:        2.715163e+26 
PDE 2015  9 16 22 54 32.90 -31.5700  -71.6700  22.4 0.0 8.3 NEAR COAST OF CENTRAL CH                
event name:     201509162254A  
time shift:      13.7395 
half duration:   13.5000 
latitude:       -31.6575 
longitude:      -71.4422 
depth:           30.2848 
Mrr:       -9.285860e+23 
Mtt:       -6.250883e+25 
Mpp:        6.343742e+25 
Mrt:        7.628201e+24 
Mrp:       -1.024532e+25 
Mtp:        7.892104e+25 
PDE 2015  9 16 22 54 32.90 -31.5700  -71.6700  22.4 0.0 8.3 NEAR COAST OF CENTRAL CH                
event name:     201509162254A  
time shift:      13.7710 
half duration:   13.5000 
latitude:       -31.4680 
longitude:      -71.7160 
depth:           20.4288 
Mrr:       -3.400651e+24 
Mtt:       -2.267927e+26 
Mpp:        2.301934e+26 
Mrt:        2.781261e+25 
Mrp:       -3.756304e+25 
Mtp:        2.863335e+26 
PDE 2015  9 16 22 54 32.90 -31.5700  -71.6700  22.4 0.0 8.3 NEAR COAST OF CENTRAL CH                
event name:     201509162254A  
time shift:      14.3307 
half duration:    1.5000 
latitude:       -31.7739 
longitude:      -71.9075 
depth:           15.5008 
Mrr:        5.833784e+24 
Mtt:       -9.854630e+25 
Mpp:        9.271251e+25 
Mrt:       -1.944324e+25 
Mrp:        7.426227e+25 
Mtp:        1.256884e+26 
PDE 2015  9 16 22 54 32.90 -31.5700  -71.6700  22.4 0.0 8.3 NEAR COAST OF CENTRAL CH                
event name:     201509162254A  
time shift:      16.9275 
half duration:    6.0000 
latitude:       -31.8177 
longitude:      -71.4640 
depth:           30.2848 
Mrr:        6.227830e+22 
Mtt:       -7.888579e+23 
Mpp:        7.265796e+23 
Mrt:       -2.228226e+23 
Mrp:        7.874818e+23 
Mtp:        1.008836e+24 
PDE 2015  9 16 22 54 32.90 -31.5700  -71.6700  22.4 0.0 8.3 NEAR COAST OF CENTRAL CH                
event name:     201509162254A  
time shift:      17.3275 
half duration:   15.0000 
latitude:       -31.4972 
longitude:      -71.4204 
depth:           30.2848 
Mrr:       -6.541395e+23 
Mtt:       -1.024853e+26 
Mpp:        1.031395e+26 
Mrt:        8.762371e+24 
Mrp:       -6.039733e+24 
Mtp:        1.295446e+26 
PDE 2015  9 16 22 54 32.90 -31.5700  -71.6700  22.4 0.0 8.3 NEAR COAST OF CENTRAL CH                
event name:     201509162254A  
time shift:      19.9421 
half duration:   15.0000 
latitude:       -31.9488 
longitude:      -71.7815 
depth:           20.4288 
Mrr:       -3.039185e+23 
Mtt:       -2.854219e+25 
Mpp:        2.884611e+25 
Mrt:        2.965292e+24 
Mrp:       -3.190357e+24 
Mtp:        3.605704e+25 
PDE 2015  9 16 22 54 32.90 -31.5700  -71.6700  22.4 0.0 8.3 NEAR COAST OF CENTRAL CH                
event name:     201509162254A  
time shift:      21.3092 
half duration:   13.5000 
latitude:       -31.6721 
longitude:      -71.2944 
depth:           35.2128 
Mrr:        4.134504e+22 
Mtt:       -1.395596e+24 
Mpp:        1.354251e+24 
Mrt:       -9.737852e+22 
Mrp:        5.403549e+23 
Mtp:        1.772807e+24 
PDE 2015  9 16 22 54 32.90 -31.5700  -71.6700  22.4 0.0 8.3 NEAR COAST OF CENTRAL CH                
event name:     201509162254A  
time shift:      21.3307 
half duration:   15.0000 
latitude:       -31.4534 
longitude:      -71.8638 
depth:           15.5008 
Mrr:       -3.874549e+24 
Mtt:       -2.637595e+26 
Mpp:        2.676341e+26 
Mrt:        3.199930e+25 
Mrp:       -4.268962e+25 
Mtp:        3.330194e+26 
PDE 2015  9 16 22 54 32.90 -31.5700  -71.6700  22.4 0.0 8.3 NEAR COAST OF CENTRAL CH                
event name:     201509162254A  
time shift:      21.5349 
half duration:    3.0000 
latitude:       -31.3223 
longitude:      -71.5464 
depth:           25.3568 
Mrr:        1.434826e+25 
Mtt:       -1.871380e+26 
Mpp:        1.727898e+26 
Mrt:       -5.102329e+25 
Mrp:        1.815361e+26 
Mtp:        2.392486e+26 
PDE 2015  9 16 22 54 32.90 -31.5700  -71.6700  22.4 0.0 8.3 NEAR COAST OF CENTRAL CH                
event name:     201509162254A  
time shift:      21.9349 
half duration:   12.0000 
latitude:       -31.9634 
longitude:      -71.6337 
depth:           25.3568 
Mrr:       -3.780953e+23 
Mtt:       -3.039190e+25 
Mpp:        3.076999e+25 
Mrt:        3.392394e+24 
Mrp:       -4.072098e+24 
Mtp:        3.838429e+25 
PDE 2015  9 16 22 54 32.90 -31.5700  -71.6700  22.4 0.0 8.3 NEAR COAST OF CENTRAL CH                
event name:     201509162254A  
time shift:      22.3349 
half duration:    6.0000 
latitude:       -31.9342 
longitude:      -71.9293 
depth:           15.5008 
Mrr:        1.080139e+22 
Mtt:       -4.613911e+23 
Mpp:        4.505897e+23 
Mrt:       -1.982865e+22 
Mrp:        1.431177e+23 
Mtp:        5.856007e+23 
PDE 2015  9 16 22 54 32.90 -31.5700  -71.6700  22.4 0.0 8.3 NEAR COAST OF CENTRAL CH                
event name:     201509162254A  
time shift:      22.4614 
half duration:    1.5000 
latitude:       -31.3369 
longitude:      -71.3986 
depth:           30.2848 
Mrr:        7.506379e+24 
Mtt:       -9.750002e+25 
Mpp:        8.999364e+25 
Mrt:       -2.671647e+25 
Mrp:        9.496361e+25 
Mtp:        1.246553e+26 
PDE 2015  9 16 22 54 32.90 -31.5700  -71.6700  22.4 0.0 8.3 NEAR COAST OF CENTRAL CH                
event name:     201509162254A  
time shift:      22.6916 
half duration:   10.5000 
latitude:       -31.5118 
longitude:      -71.2726 
depth:           35.2128 
Mrr:       -7.328920e+22 
Mtt:       -7.358117e+24 
Mpp:        7.431406e+24 
Mrt:        7.426248e+23 
Mrp:       -7.597727e+23 
Mtp:        9.296309e+24 
PDE 2015  9 16 22 54 32.90 -31.5700  -71.6700  22.4 0.0 8.3 NEAR COAST OF CENTRAL CH                
event name:     201509162254A  
time shift:      23.6916 
half duration:   10.5000 
latitude:       -31.8323 
longitude:      -71.3162 
depth:           35.2128 
Mrr:        1.293585e+22 
Mtt:       -7.812402e+23 
Mpp:        7.683043e+23 
Mrt:       -1.048960e+22 
Mrp:        1.760059e+23 
Mtp:        9.906251e+23 
PDE 2015  9 16 22 54 32.90 -31.5700  -71.6700  22.4 0.0 8.3 NEAR COAST OF CENTRAL CH                
event name:     201509162254A  
time shift:      23.7275 
half duration:    1.5000 
latitude:       -31.7593 
longitude:      -72.0553 
depth:           10.5728 
Mrr:        1.259534e+25 
Mtt:       -1.594129e+26 
Mpp:        1.468176e+26 
Mrt:       -4.507171e+25 
Mrp:        1.592600e+26 
Mtp:        2.038679e+26 
PDE 2015  9 16 22 54 32.90 -31.5700  -71.6700  22.4 0.0 8.3 NEAR COAST OF CENTRAL CH                
event name:     201509162254A  
time shift:      23.7395 
half duration:    9.0000 
latitude:       -31.5991 
longitude:      -72.0335 
depth:           10.5728 
Mrr:        1.777982e+25 
Mtt:       -2.446860e+26 
Mpp:        2.269061e+26 
Mrt:       -6.248451e+25 
Mrp:        2.252103e+26 
Mtp:        3.126510e+26 
PDE 2015  9 16 22 54 32.90 -31.5700  -71.6700  22.4 0.0 8.3 NEAR COAST OF CENTRAL CH                
event name:     201509162254A  
time shift:      24.7421 
half duration:   15.0000 
latitude:       -31.3077 
longitude:      -71.6942 
depth:           20.4288 
Mrr:       -3.121679e+24 
Mtt:       -2.257775e+26 
Mpp:        2.288991e+26 
Mrt:        2.655076e+25 
Mrp:       -3.412720e+25 
Mtp:        2.850976e+26 
PDE 2015  9 16 22 54 32.90 -31.5700  -71.6700  22.4 0.0 8.3 NEAR COAST OF CENTRAL CH                
event name:     201509162254A  
time shift:      25.8614 
half duration:   12.0000 
latitude:       -31.9780 
longitude:      -71.4859 
depth:           30.2848 
Mrr:        3.340214e+22 
Mtt:       -5.208944e+23 
Mpp:        4.874923e+23 
Mrt:       -1.138380e+23 
Mrp:        4.243258e+23 
Mtp:        6.648075e+23 
PDE 2015  9 16 22 54 32.90 -31.5700  -71.6700  22.4 0.0 8.3 NEAR COAST OF CENTRAL CH                
event name:     201509162254A  
time shift:      27.1442 
half duration:    4.5000 
latitude:       -31.3515 
longitude:      -71.2508 
depth:           35.2128 
Mrr:        2.925643e+23 
Mtt:       -4.739018e+24 
Mpp:        4.446453e+24 
Mrt:       -9.868521e+23 
Mrp:        3.720162e+24 
Mtp:        6.046349e+24 
PDE 2015  9 16 22 54 32.90 -31.5700  -71.6700  22.4 0.0 8.3 NEAR COAST OF CENTRAL CH                
event name:     201509162254A  
time shift:      27.8614 
half duration:    4.5000 
latitude:       -31.9196 
longitude:      -72.0771 
depth:           10.5728 
Mrr:       -2.095296e+23 
Mtt:       -3.285790e+25 
Mpp:        3.306743e+25 
Mrt:        2.808471e+24 
Mrp:       -1.933993e+24 
Mtp:        4.153341e+25 
PDE 2015  9 16 22 54 32.90 -31.5700  -71.6700  22.4 0.0 8.3 NEAR COAST OF CENTRAL CH                
event name:     201509162254A  
time shift:      28.0790 
half duration:    6.0000 
latitude:       -31.6867 
longitude:      -71.1466 
depth:           40.1408 
Mrr:       -3.971351e+23 
Mtt:       -3.444852e+25 
Mpp:        3.484566e+25 
Mrt:        3.709680e+24 
Mrp:       -4.226264e+24 
Mtp:        4.351318e+25 
PDE 2015  9 16 22 54 32.90 -31.5700  -71.6700  22.4 0.0 8.3 NEAR COAST OF CENTRAL CH                
event name:     201509162254A  
time shift:      28.3275 
half duration:    6.0000 
latitude:       -31.4388 
longitude:      -72.0117 
depth:           10.5728 
Mrr:        1.116525e+25 
Mtt:       -3.003974e+26 
Mpp:        2.892321e+26 
Mrt:       -3.073126e+25 
Mrp:        1.443822e+26 
Mtp:        3.819844e+26 
PDE 2015  9 16 22 54 32.90 -31.5700  -71.6700  22.4 0.0 8.3 NEAR COAST OF CENTRAL CH                
event name:     201509162254A  
time shift:      28.7261 
half duration:    3.0000 
latitude:       -31.1621 
longitude:      -71.5246 
depth:           25.3568 
Mrr:        1.346471e+25 
Mtt:       -2.138439e+26 
Mpp:        2.003792e+26 
Mrt:       -4.566494e+25 
Mrp:        1.711274e+26 
Mtp:        2.728818e+26 
PDE 2015  9 16 22 54 32.90 -31.5700  -71.6700  22.4 0.0 8.3 NEAR COAST OF CENTRAL CH                
event name:     201509162254A  
time shift:      28.9325 
half duration:    3.0000 
latitude:       -31.5264 
longitude:      -71.1248 
depth:           40.1408 
Mrr:       -4.499424e+23 
Mtt:       -3.434331e+25 
Mpp:        3.479326e+25 
Mrt:        3.931297e+24 
Mrp:       -4.882634e+24 
Mtp:        4.337090e+25 
PDE 2015  9 16 22 54 32.90 -31.5700  -71.6700  22.4 0.0 8.3 NEAR COAST OF CENTRAL CH                
event name:     201509162254A  
time shift:      29.6042 
half duration:   15.0000 
latitude:       -31.1767 
longitude:      -71.3768 
depth:           30.2848 
Mrr:        1.129227e+25 
Mtt:       -1.447774e+26 
Mpp:        1.334851e+26 
Mrt:       -4.030110e+25 
Mrp:        1.428209e+26 
Mtp:        1.851255e+26 
PDE 2015  9 16 22 54 32.90 -31.5700  -71.6700  22.4 0.0 8.3 NEAR COAST OF CENTRAL CH                
event name:     201509162254A  
time shift:      30.3325 
half duration:   10.5000 
latitude:       -31.8469 
longitude:      -71.1684 
depth:           40.1408 
Mrr:        1.623974e+24 
Mtt:       -2.073974e+25 
Mpp:        1.911577e+25 
Mrt:       -5.800519e+24 
Mrp:        2.053785e+25 
Mtp:        2.652082e+25 
PDE 2015  9 16 22 54 32.90 -31.5700  -71.6700  22.4 0.0 8.3 NEAR COAST OF CENTRAL CH                
event name:     201509162254A  
time shift:      30.3349 
half duration:   15.0000 
latitude:       -31.2931 
longitude:      -71.8420 
depth:           15.5008 
Mrr:       -4.520433e+24 
Mtt:       -3.427245e+26 
Mpp:        3.472450e+26 
Mrt:        3.936248e+25 
Mrp:       -4.910091e+25 
Mtp:        4.328089e+26 
PDE 2015  9 16 22 54 32.90 -31.5700  -71.6700  22.4 0.0 8.3 NEAR COAST OF CENTRAL CH                
event name:     201509162254A  
time shift:      31.1131 
half duration:    3.0000 
latitude:       -31.1475 
longitude:      -71.6724 
depth:           20.4288 
Mrr:       -3.076366e+24 
Mtt:       -2.083287e+26 
Mpp:        2.114051e+26 
Mrt:        2.534377e+25 
Mrp:       -3.391732e+25 
Mtp:        2.630303e+26 
PDE 2015  9 16 22 54 32.90 -31.5700  -71.6700  22.4 0.0 8.3 NEAR COAST OF CENTRAL CH                
event name:     201509162254A  
time shift:      31.3442 
half duration:    4.5000 
latitude:       -31.9926 
longitude:      -71.3380 
depth:           35.2128 
Mrr:       -2.434906e+21 
Mtt:       -3.661130e+23 
Mpp:        3.685479e+23 
Mrt:        3.172521e+22 
Mrp:       -2.279134e+22 
Mtp:        4.627609e+23 
PDE 2015  9 16 22 54 32.90 -31.5700  -71.6700  22.4 0.0 8.3 NEAR COAST OF CENTRAL CH                
event name:     201509162254A  
time shift:      32.2550 
half duration:    3.0000 
latitude:       -31.3661 
longitude:      -71.1030 
depth:           40.1408 
Mrr:        3.197989e+24 
Mtt:       -4.859435e+25 
Mpp:        4.539636e+25 
Mrt:       -1.097312e+25 
Mrp:        4.060008e+25 
Mtp:        6.203426e+25 
PDE 2015  9 16 22 54 32.90 -31.5700  -71.6700  22.4 0.0 8.3 NEAR COAST OF CENTRAL CH                
event name:     201509162254A  
time shift:      32.9131 
half duration:    7.5000 
latitude:       -32.1091 
longitude:      -71.8033 
depth:           20.4288 
Mrr:       -3.602355e+23 
Mtt:       -2.732022e+25 
Mpp:        2.768046e+25 
Mrt:        3.137298e+24 
Mrp:       -3.912707e+24 
Mtp:        3.450130e+25 
PDE 2015  9 16 22 54 32.90 -31.5700  -71.6700  22.4 0.0 8.3 NEAR COAST OF CENTRAL CH                
event name:     201509162254A  
time shift:      33.1261 
half duration:    1.5000 
latitude:       -32.0944 
longitude:      -71.9511 
depth:           15.5008 
Mrr:       -1.431078e+22 
Mtt:       -1.185210e+24 
Mpp:        1.199521e+24 
Mrt:        1.304235e+23 
Mrp:       -1.534247e+23 
Mtp:        1.496969e+24 
PDE 2015  9 16 22 54 32.90 -31.5700  -71.6700  22.4 0.0 8.3 NEAR COAST OF CENTRAL CH                
event name:     201509162254A  
time shift:      33.2614 
half duration:    1.5000 
latitude:       -31.2785 
longitude:      -71.9898 
depth:           10.5728 
Mrr:        2.870318e+24 
Mtt:       -3.163270e+26 
Mpp:        3.134566e+26 
Mrt:        5.961663e+24 
Mrp:        4.193413e+25 
Mtp:        4.006964e+26 
PDE 2015  9 16 22 54 32.90 -31.5700  -71.6700  22.4 0.0 8.3 NEAR COAST OF CENTRAL CH                
event name:     201509162254A  
time shift:      33.3921 
half duration:   12.0000 
latitude:       -31.1913 
longitude:      -71.2290 
depth:           35.2128 
Mrr:       -6.209543e+23 
Mtt:       -4.719298e+25 
Mpp:        4.781393e+25 
Mrt:        5.413694e+24 
Mrp:       -6.742500e+24 
Mtp:        5.959780e+25 
PDE 2015  9 16 22 54 32.90 -31.5700  -71.6700  22.4 0.0 8.3 NEAR COAST OF CENTRAL CH                
event name:     201509162254A  
time shift:      33.5442 
half duration:    1.5000 
latitude:       -31.2639 
longitude:      -72.1376 
depth:            5.6448 
Mrr:        1.340264e+25 
Mtt:       -2.696266e+26 
Mpp:        2.562239e+26 
Mrt:       -4.216332e+25 
Mrp:        1.714823e+26 
Mtp:        3.434438e+26 
PDE 2015  9 16 22 54 32.90 -31.5700  -71.6700  22.4 0.0 8.3 NEAR COAST OF CENTRAL CH                
event name:     201509162254A  
time shift:      33.8916 
half duration:    6.0000 
latitude:       -31.4242 
longitude:      -72.1595 
depth:            5.6448 
Mrr:        1.710066e+25 
Mtt:       -2.670039e+26 
Mpp:        2.499032e+26 
Mrt:       -5.826198e+25 
Mrp:        2.172457e+26 
Mtp:        3.407682e+26 
PDE 2015  9 16 22 54 32.90 -31.5700  -71.6700  22.4 0.0 8.3 NEAR COAST OF CENTRAL CH                
event name:     201509162254A  
time shift:      34.1261 
half duration:    6.0000 
latitude:       -32.1236 
longitude:      -71.6555 
depth:           25.3568 
Mrr:       -1.291426e+24 
Mtt:       -8.932852e+25 
Mpp:        9.061994e+25 
Mrt:        1.074771e+25 
Mrp:       -1.420037e+25 
Mtp:        1.127886e+26 
PDE 2015  9 16 22 54 32.90 -31.5700  -71.6700  22.4 0.0 8.3 NEAR COAST OF CENTRAL CH                
event name:     201509162254A  
time shift:      34.3092 
half duration:   15.0000 
latitude:       -31.5845 
longitude:      -72.1813 
depth:            5.6448 
Mrr:        2.112467e+25 
Mtt:       -2.677533e+26 
Mpp:        2.466286e+26 
Mrt:       -7.557088e+25 
Mrp:        2.671157e+26 
Mtp:        3.424155e+26 
PDE 2015  9 16 22 54 32.90 -31.5700  -71.6700  22.4 0.0 8.3 NEAR COAST OF CENTRAL CH                
event name:     201509162254A  
time shift:      34.4916 
half duration:   15.0000 
latitude:       -31.7447 
longitude:      -72.2031 
depth:            5.6448 
Mrr:        1.767350e+25 
Mtt:       -2.235159e+26 
Mpp:        2.058424e+26 
Mrt:       -6.325336e+25 
Mrp:        2.234666e+26 
Mtp:        2.858495e+26 
PDE 2015  9 16 22 54 32.90 -31.5700  -71.6700  22.4 0.0 8.3 NEAR COAST OF CENTRAL CH                
event name:     201509162254A  
time shift:      34.6988 
half duration:    4.5000 
latitude:       -31.0018 
longitude:      -71.5028 
depth:           25.3568 
Mrr:        7.144938e+24 
Mtt:       -1.425641e+26 
Mpp:        1.354192e+26 
Mrt:       -2.254527e+25 
Mrp:        9.139343e+25 
Mtp:        1.816049e+26 
PDE 2015  9 16 22 54 32.90 -31.5700  -71.6700  22.4 0.0 8.3 NEAR COAST OF CENTRAL CH                
event name:     201509162254A  
time shift:      34.7442 
half duration:   15.0000 
latitude:       -31.9050 
longitude:      -72.2249 
depth:            5.6448 
Mrr:        9.965590e+24 
Mtt:       -1.297105e+26 
Mpp:        1.197449e+26 
Mrt:       -3.545368e+25 
Mrp:        1.260806e+26 
Mtp:        1.658333e+26 
PDE 2015  9 16 22 54 32.90 -31.5700  -71.6700  22.4 0.0 8.3 NEAR COAST OF CENTRAL CH                
event name:     201509162254A  
time shift:      35.2042 
half duration:   15.0000 
latitude:       -32.0798 
longitude:      -72.0989 
depth:           10.5728 
Mrr:        2.292596e+22 
Mtt:       -1.659875e+24 
Mpp:        1.636949e+24 
Mrt:       -2.630140e+21 
Mrp:        3.174780e+23 
Mtp:        2.103956e+24 
PDE 2015  9 16 22 54 32.90 -31.5700  -71.6700  22.4 0.0 8.3 NEAR COAST OF CENTRAL CH                
event name:     201509162254A  
time shift:      36.3261 
half duration:    7.5000 
latitude:       -31.1329 
longitude:      -71.8202 
depth:           15.5008 
Mrr:        6.944542e+23 
Mtt:       -3.958856e+26 
Mpp:        3.951911e+26 
Mrt:        1.995684e+25 
Mrp:        1.657929e+25 
Mtp:        5.009711e+26 
PDE 2015  9 16 22 54 32.90 -31.5700  -71.6700  22.4 0.0 8.3 NEAR COAST OF CENTRAL CH                
event name:     201509162254A  
time shift:      36.4698 
half duration:   15.0000 
latitude:       -31.0164 
longitude:      -71.3550 
depth:           30.2848 
Mrr:       -7.854558e+23 
Mtt:       -9.804425e+25 
Mpp:        9.882970e+25 
Mrt:        9.071161e+24 
Mrp:       -7.756131e+24 
Mtp:        1.239032e+26 
PDE 2015  9 16 22 54 32.90 -31.5700  -71.6700  22.4 0.0 8.3 NEAR COAST OF CENTRAL CH                
event name:     201509162254A  
time shift:      36.6842 
half duration:   12.0000 
latitude:       -30.9872 
longitude:      -71.6506 
depth:           20.4288 
Mrr:        8.237686e+24 
Mtt:       -1.062127e+26 
Mpp:        9.797498e+25 
Mrt:       -2.936490e+25 
Mrp:        1.041996e+26 
Mtp:        1.358051e+26 
PDE 2015  9 16 22 54 32.90 -31.5700  -71.6700  22.4 0.0 8.3 NEAR COAST OF CENTRAL CH                
event name:     201509162254A  
time shift:      36.8042 
half duration:   10.5000 
latitude:       -32.1383 
longitude:      -71.5077 
depth:           30.2848 
Mrr:        2.050282e+23 
Mtt:       -2.685719e+24 
Mpp:        2.480691e+24 
Mrt:       -7.284184e+23 
Mrp:        2.594278e+24 
Mtp:        3.433431e+24 
PDE 2015  9 16 22 54 32.90 -31.5700  -71.6700  22.4 0.0 8.3 NEAR COAST OF CENTRAL CH                
event name:     201509162254A  
time shift:      36.8550 
half duration:    1.5000 
latitude:       -32.0072 
longitude:      -71.1902 
depth:           40.1408 
Mrr:        1.808755e+24 
Mtt:       -2.720929e+25 
Mpp:        2.540053e+25 
Mrt:       -6.222260e+24 
Mrp:        2.295751e+25 
Mtp:        3.473780e+25 
PDE 2015  9 16 22 54 32.90 -31.5700  -71.6700  22.4 0.0 8.3 NEAR COAST OF CENTRAL CH                
event name:     201509162254A  
time shift:      37.2550 
half duration:    1.5000 
latitude:       -31.2493 
longitude:      -72.2855 
depth:            0.7168 
Mrr:        1.744067e+25 
Mtt:       -2.270598e+26 
Mpp:        2.096191e+26 
Mrt:       -6.204392e+25 
Mrp:        2.206534e+26 
Mtp:        2.902925e+26 
PDE 2015  9 16 22 54 32.90 -31.5700  -71.6700  22.4 0.0 8.3 NEAR COAST OF CENTRAL CH                
event name:     201509162254A  
time shift:      37.5921 
half duration:    4.5000 
latitude:       -32.0652 
longitude:      -72.2467 
depth:            5.6448 
Mrr:        4.766393e+24 
Mtt:       -8.359655e+25 
Mpp:        7.883016e+25 
Mrt:       -1.570715e+25 
Mrp:        6.073679e+25 
Mtp:        1.065894e+26 
PDE 2015  9 16 22 54 32.90 -31.5700  -71.6700  22.4 0.0 8.3 NEAR COAST OF CENTRAL CH                
event name:     201509162254A  
time shift:      37.7406 
half duration:    1.5000 
latitude:       -31.2059 
longitude:      -71.0812 
depth:           40.1408 
Mrr:       -1.264569e+24 
Mtt:       -8.803005e+25 
Mpp:        8.929462e+25 
Mrt:        1.055662e+25 
Mrp:       -1.389380e+25 
Mtp:        1.111506e+26 
PDE 2015  9 16 22 54 32.90 -31.5700  -71.6700  22.4 0.0 8.3 NEAR COAST OF CENTRAL CH                
event name:     201509162254A  
time shift:      39.5325 
half duration:   15.0000 
latitude:       -31.4096 
longitude:      -72.3073 
depth:            0.7168 
Mrr:        1.815189e+25 
Mtt:       -2.325973e+26 
Mpp:        2.144455e+26 
Mrt:       -6.478980e+25 
Mrp:        2.295765e+26 
Mtp:        2.974218e+26 
PDE 2015  9 16 22 54 32.90 -31.5700  -71.6700  22.4 0.0 8.3 NEAR COAST OF CENTRAL CH                
event name:     201509162254A  
time shift:      39.6042 
half duration:   15.0000 
latitude:       -31.1183 
longitude:      -71.9680 
depth:           10.5728 
Mrr:       -5.532661e+24 
Mtt:       -3.728534e+26 
Mpp:        3.783861e+26 
Mrt:        4.547414e+25 
Mrp:       -6.103481e+25 
Mtp:        4.707503e+26 
PDE 2015  9 16 22 54 32.90 -31.5700  -71.6700  22.4 0.0 8.3 NEAR COAST OF CENTRAL CH                
event name:     201509162254A  
time shift:      40.0160 
half duration:    1.5000 
latitude:       -31.0310 
longitude:      -71.2072 
depth:           35.2128 
Mrr:       -9.212167e+23 
Mtt:       -6.726324e+25 
Mpp:        6.818446e+25 
Mrt:        7.872060e+24 
Mrp:       -1.005823e+25 
Mtp:        8.493731e+25 
PDE 2015  9 16 22 54 32.90 -31.5700  -71.6700  22.4 0.0 8.3 NEAR COAST OF CENTRAL CH                
event name:     201509162254A  
time shift:      40.2550 
half duration:    9.0000 
latitude:       -31.8904 
longitude:      -72.3727 
depth:            0.7168 
Mrr:        1.156014e+25 
Mtt:       -1.466711e+26 
Mpp:        1.351110e+26 
Mrt:       -4.134640e+25 
Mrp:        1.461778e+26 
Mtp:        1.875679e+26 
PDE 2015  9 16 22 54 32.90 -31.5700  -71.6700  22.4 0.0 8.3 NEAR COAST OF CENTRAL CH                
event name:     201509162254A  
time shift:      40.3406 
half duration:    1.5000 
latitude:       -32.0506 
longitude:      -72.3945 
depth:            0.7168 
Mrr:        8.368613e+24 
Mtt:       -1.063181e+26 
Mpp:        9.794949e+25 
Mrt:       -2.992337e+25 
Mrp:        1.058238e+26 
Mtp:        1.359612e+26 
PDE 2015  9 16 22 54 32.90 -31.5700  -71.6700  22.4 0.0 8.3 NEAR COAST OF CENTRAL CH                
event name:     201509162254A  
time shift:      40.5921 
half duration:    4.5000 
latitude:       -32.1529 
longitude:      -71.3599 
depth:           35.2128 
Mrr:        1.885356e+22 
Mtt:       -2.599480e+23 
Mpp:        2.410944e+23 
Mrt:       -6.622989e+22 
Mrp:        2.388208e+23 
Mtp:        3.321461e+23 
PDE 2015  9 16 22 54 32.90 -31.5700  -71.6700  22.4 0.0 8.3 NEAR COAST OF CENTRAL CH                
event name:     201509162254A  
time shift:      40.7488 
half duration:    1.5000 
latitude:       -30.8416 
longitude:      -71.4810 
depth:           25.3568 
Mrr:        2.061488e+24 
Mtt:       -9.108214e+25 
Mpp:        8.902066e+25 
Mrt:       -3.609065e+24 
Mrp:        2.737548e+25 
Mtp:        1.155898e+26 
PDE 2015  9 16 22 54 32.90 -31.5700  -71.6700  22.4 0.0 8.3 NEAR COAST OF CENTRAL CH                
event name:     201509162254A  
time shift:      41.2988 
half duration:   10.5000 
latitude:       -30.9726 
longitude:      -71.7984 
depth:           15.5008 
Mrr:       -1.366543e+24 
Mtt:       -3.859740e+26 
Mpp:        3.873405e+26 
Mrt:        2.826966e+25 
Mrp:       -9.154869e+24 
Mtp:        4.880734e+26 
PDE 2015  9 16 22 54 32.90 -31.5700  -71.6700  22.4 0.0 8.3 NEAR COAST OF CENTRAL CH                
event name:     201509162254A  
time shift:      41.3921 
half duration:   15.0000 
latitude:       -31.1037 
longitude:      -72.1158 
depth:            5.6448 
Mrr:        3.746316e+24 
Mtt:       -2.933583e+26 
Mpp:        2.896120e+26 
Mrt:        8.525728e+23 
Mrp:        5.232449e+25 
Mtp:        3.717900e+26 
PDE 2015  9 16 22 54 32.90 -31.5700  -71.6700  22.4 0.0 8.3 NEAR COAST OF CENTRAL CH                
event name:     201509162254A  
time shift:      41.6790 
half duration:   15.0000 
latitude:       -31.5699 
longitude:      -72.3291 
depth:            0.7168 
Mrr:        1.691322e+25 
Mtt:       -2.201179e+26 
Mpp:        2.032046e+26 
Mrt:       -6.017190e+25 
Mrp:        2.139788e+26 
Mtp:        2.814183e+26 
PDE 2015  9 16 22 54 32.90 -31.5700  -71.6700  22.4 0.0 8.3 NEAR COAST OF CENTRAL CH                
event name:     201509162254A  
time shift:      42.1325 
half duration:   15.0000 
latitude:       -31.7301 
longitude:      -72.3509 
depth:            0.7168 
Mrr:        1.607402e+25 
Mtt:       -2.035195e+26 
Mpp:        1.874454e+26 
Mrt:       -5.751539e+25 
Mrp:        2.032472e+26 
Mtp:        2.602733e+26 
PDE 2015  9 16 22 54 32.90 -31.5700  -71.6700  22.4 0.0 8.3 NEAR COAST OF CENTRAL CH                
event name:     201509162254A  
time shift:      42.9908 
half duration:   15.0000 
latitude:       -30.8562 
longitude:      -71.3332 
depth:           30.2848 
Mrr:       -3.928666e+23 
Mtt:       -2.736957e+25 
Mpp:        2.776243e+25 
Mrt:        3.280871e+24 
Mrp:       -4.315992e+24 
Mtp:        3.455806e+25 
PDE 2015  9 16 22 54 32.90 -31.5700  -71.6700  22.4 0.0 8.3 NEAR COAST OF CENTRAL CH                
event name:     201509162254A  
time shift:      43.4552 
half duration:    3.0000 
latitude:       -30.8270 
longitude:      -71.6288 
depth:           20.4288 
Mrr:        2.854689e+24 
Mtt:       -3.798686e+25 
Mpp:        3.513217e+25 
Mrt:       -1.010771e+25 
Mrp:        3.613310e+25 
Mtp:        4.855466e+25 
PDE 2015  9 16 22 54 32.90 -31.5700  -71.6700  22.4 0.0 8.3 NEAR COAST OF CENTRAL CH                
event name:     201509162254A  
time shift:      43.9227 
half duration:    4.5000 
latitude:       -31.0456 
longitude:      -71.0594 
depth:           40.1408 
Mrr:        3.453444e+24 
Mtt:       -4.473199e+25 
Mpp:        4.127854e+25 
Mrt:       -1.229862e+25 
Mrp:        4.368720e+25 
Mtp:        5.719222e+25 
PDE 2015  9 16 22 54 32.90 -31.5700  -71.6700  22.4 0.0 8.3 NEAR COAST OF CENTRAL CH                
event name:     201509162254A  
time shift:      44.2988 
half duration:   15.0000 
latitude:       -32.2547 
longitude:      -71.9729 
depth:           15.5008 
Mrr:        2.583438e+22 
Mtt:       -6.866787e+23 
Mpp:        6.608443e+23 
Mrt:       -7.159288e+22 
Mrp:        3.339057e+23 
Mtp:        8.732328e+23 
PDE 2015  9 16 22 54 32.90 -31.5700  -71.6700  22.4 0.0 8.3 NEAR COAST OF CENTRAL CH                
event name:     201509162254A  
time shift:      44.3406 
half duration:   15.0000 
latitude:       -31.0891 
longitude:      -72.2636 