PDE 2015  9 16 22 54 32.90 -31.5700  -71.6700  22.4 0.0 8.3 NEAR COAST OF CENTRAL CH                
event name:     201509162254A  
time shift:       0.0000 
half duration:    9.0000 
latitude:       -31.6283 
longitude:      -71.7378 
depth:           20.4288 
Mrr:       -2.665576e+24 
Mtt:       -1.798689e+26 
Mpp:        1.825345e+26 
Mrt:        2.192240e+25 
Mrp:       -2.940123e+25 
Mtp:        2.270961e+26 
PDE 2015  9 16 22 54 32.90 -31.5700  -71.6700  22.4 0.0 8.3 NEAR COAST OF CENTRAL CH                
event name:     201509162254A  
time shift:       7.3697 
half duration:   15.0000 
latitude:       -31.6429 
longitude:      -71.5900 
depth:           25.3568 
Mrr:       -2.418900e+24 
Mtt:       -1.652307e+26 
Mpp:        1.676496e+26 
Mrt:        2.001004e+25 
Mrp:       -2.663997e+25 
Mtp:        2.086196e+26 
PDE 2015  9 16 22 54 32.90 -31.5700  -71.6700  22.4 0.0 8.3 NEAR COAST OF CENTRAL CH                
event name:     201509162254A  
time shift:       7.9710 
half duration:    1.5000 
latitude:       -31.7885 
longitude:      -71.7597 
depth:           20.4288 
Mrr:       -1.022051e+24 
Mtt:       -7.594813e+25 
Mpp:        7.697018e+25 
Mrt:        8.810384e+24 
Mrp:       -1.113254e+25 
Mtp:        9.590739e+25 
PDE 2015  9 16 22 54 32.90 -31.5700  -71.6700  22.4 0.0 8.3 NEAR COAST OF CENTRAL CH                
event name:     201509162254A  
time shift:      10.7697 
half duration:    7.5000 
latitude:       -31.6137 
longitude:      -71.8857 
depth:           15.5008 
Mrr:       -3.915477e+23 
Mtt:       -1.854288e+26 
Mpp:        1.858203e+26 
Mrt:        1.243867e+25 
Mrp:       -1.115421e+24 
Mtp:        2.345252e+26 
PDE 2015  9 16 22 54 32.90 -31.5700  -71.6700  22.4 0.0 8.3 NEAR COAST OF CENTRAL CH                
event name:     201509162254A  
time shift:      10.9307 
half duration:   15.0000 
latitude:       -31.8031 
longitude:      -71.6118 
depth:           25.3568 
Mrr:       -7.417267e+23 
Mtt:       -5.178198e+25 
Mpp:        5.252370e+25 
Mrt:        6.200536e+24 
Mrp:       -8.146345e+24 
Mtp:        6.538254e+25 
PDE 2015  9 16 22 54 32.90 -31.5700  -71.6700  22.4 0.0 8.3 NEAR COAST OF CENTRAL CH                
event name:     201509162254A  
time shift:      11.9710 
half duration:   15.0000 
latitude:       -31.4680 
longitude:      -71.7160 
depth:           20.4288 
Mrr:       -1.852264e+24 
Mtt:       -1.883828e+26 
Mpp:        1.902351e+26 
Mrt:        1.890883e+25 
Mrp:       -1.915328e+25 
Mtp:        2.380087e+26 
PDE 2015  9 16 22 54 32.90 -31.5700  -71.6700  22.4 0.0 8.3 NEAR COAST OF CENTRAL CH                
event name:     201509162254A  
time shift:      13.5307 
half duration:    1.5000 
latitude:       -31.7739 
longitude:      -71.9075 
depth:           15.5008 
Mrr:        1.619496e+24 
Mtt:       -8.466855e+25 
Mpp:        8.304905e+25 
Mrt:       -2.074936e+24 
Mrp:        2.177027e+25 
Mtp:        1.073989e+26 
PDE 2015  9 16 22 54 32.90 -31.5700  -71.6700  22.4 0.0 8.3 NEAR COAST OF CENTRAL CH                
event name:     201509162254A  
time shift:      14.1307 
half duration:   15.0000 
latitude:       -31.4826 
longitude:      -71.5682 
depth:           25.3568 
Mrr:       -2.987910e+24 
Mtt:       -2.191256e+26 
Mpp:        2.221135e+26 
Mrt:        2.558828e+25 
Mrp:       -3.260390e+25 
Mtp:        2.767052e+26 
PDE 2015  9 16 22 54 32.90 -31.5700  -71.6700  22.4 0.0 8.3 NEAR COAST OF CENTRAL CH                
event name:     201509162254A  
time shift:      15.1395 
half duration:   15.0000 
latitude:       -31.6575 
longitude:      -71.4422 
depth:           30.2848 
Mrr:       -7.495798e+23 
Mtt:       -5.096097e+25 
Mpp:        5.171055e+25 
Mrt:        6.186803e+24 
Mrp:       -8.260180e+24 
Mtp:        6.434249e+25 
PDE 2015  9 16 22 54 32.90 -31.5700  -71.6700  22.4 0.0 8.3 NEAR COAST OF CENTRAL CH                
event name:     201509162254A  
time shift:      17.1275 
half duration:    1.5000 
latitude:       -31.8177 
longitude:      -71.4640 
depth:           30.2848 
Mrr:        5.900561e+19 
Mtt:       -4.523635e+22 
Mpp:        4.517734e+22 
Mrt:        2.368133e+21 
Mrp:        1.642366e+21 
Mtp:        5.724053e+22 
PDE 2015  9 16 22 54 32.90 -31.5700  -71.6700  22.4 0.0 8.3 NEAR COAST OF CENTRAL CH                
event name:     201509162254A  
time shift:      17.3307 
half duration:    4.5000 
latitude:       -31.4534 
longitude:      -71.8638 
depth:           15.5008 
Mrr:        7.282618e+23 
Mtt:       -2.421816e+26 
Mpp:        2.414533e+26 
Mrt:        1.090007e+25 
Mrp:        1.390166e+25 
Mtp:        3.065199e+26 
PDE 2015  9 16 22 54 32.90 -31.5700  -71.6700  22.4 0.0 8.3 NEAR COAST OF CENTRAL CH                
event name:     201509162254A  
time shift:      19.1421 
half duration:    3.0000 
latitude:       -31.9488 
longitude:      -71.7815 
depth:           20.4288 
Mrr:        9.440561e+23 
Mtt:       -1.292762e+25 
Mpp:        1.198356e+25 
Mrt:       -3.321483e+24 
Mrp:        1.195671e+25 
Mtp:        1.651926e+25 
PDE 2015  9 16 22 54 32.90 -31.5700  -71.6700  22.4 0.0 8.3 NEAR COAST OF CENTRAL CH                
event name:     201509162254A  
time shift:      19.7275 
half duration:   13.5000 
latitude:       -31.4972 
longitude:      -71.4204 
depth:           30.2848 
Mrr:       -1.611506e+24 
Mtt:       -1.125347e+26 
Mpp:        1.141462e+26 
Mrt:        1.347334e+25 
Mrp:       -1.769846e+25 
Mtp:        1.420921e+26 
PDE 2015  9 16 22 54 32.90 -31.5700  -71.6700  22.4 0.0 8.3 NEAR COAST OF CENTRAL CH                
event name:     201509162254A  
time shift:      20.7349 
half duration:    1.5000 
latitude:       -31.9634 
longitude:      -71.6337 
depth:           25.3568 
Mrr:        2.041367e+24 
Mtt:       -3.079718e+25 
Mpp:        2.875581e+25 
Mrt:       -7.017323e+24 
Mrp:        2.591171e+25 
Mtp:        3.931740e+25 
PDE 2015  9 16 22 54 32.90 -31.5700  -71.6700  22.4 0.0 8.3 NEAR COAST OF CENTRAL CH                
event name:     201509162254A  
time shift:      22.1349 
half duration:    1.5000 
latitude:       -31.9342 
longitude:      -71.9293 
depth:           15.5008 
Mrr:        3.009018e+21 
Mtt:       -1.996853e+23 
Mpp:        1.966763e+23 
Mrt:       -1.398742e+21 
Mrp:        4.130270e+22 
Mtp:        2.531525e+23 
PDE 2015  9 16 22 54 32.90 -31.5700  -71.6700  22.4 0.0 8.3 NEAR COAST OF CENTRAL CH                
event name:     201509162254A  
time shift:      22.3092 
half duration:    9.0000 
latitude:       -31.6721 
longitude:      -71.2944 
depth:           35.2128 
Mrr:        1.762839e+23 
Mtt:       -7.172194e+24 
Mpp:        6.995910e+24 
Mrt:       -3.443641e+23 
Mrp:        2.328539e+24 
Mtp:        9.104453e+24 
PDE 2015  9 16 22 54 32.90 -31.5700  -71.6700  22.4 0.0 8.3 NEAR COAST OF CENTRAL CH                
event name:     201509162254A  
time shift:      22.7395 
half duration:    7.5000 
latitude:       -31.5991 
longitude:      -72.0335 
depth:           10.5728 
Mrr:        1.531467e+25 
Mtt:       -2.632615e+26 
Mpp:        2.479469e+26 
Mrt:       -5.077737e+25 
Mrp:        1.950429e+26 
Mtp:        3.357234e+26 
PDE 2015  9 16 22 54 32.90 -31.5700  -71.6700  22.4 0.0 8.3 NEAR COAST OF CENTRAL CH                
event name:     201509162254A  
time shift:      23.3421 
half duration:   15.0000 
latitude:       -31.3077 
longitude:      -71.6942 
depth:           20.4288 
Mrr:       -2.342742e+24 
Mtt:       -1.967440e+26 
Mpp:        1.990867e+26 
Mrt:        2.150861e+25 
Mrp:       -2.506156e+25 
Mtp:        2.485015e+26 
PDE 2015  9 16 22 54 32.90 -31.5700  -71.6700  22.4 0.0 8.3 NEAR COAST OF CENTRAL CH                
event name:     201509162254A  
time shift:      23.5275 
half duration:    1.5000 
latitude:       -31.7593 
longitude:      -72.0553 
depth:           10.5728 
Mrr:        1.270334e+25 
Mtt:       -1.609120e+26 
Mpp:        1.482086e+26 
Mrt:       -4.545052e+25 
Mrp:        1.606283e+26 
Mtp:        2.057832e+26 
PDE 2015  9 16 22 54 32.90 -31.5700  -71.6700  22.4 0.0 8.3 NEAR COAST OF CENTRAL CH                
event name:     201509162254A  
time shift:      23.7349 
half duration:   15.0000 
latitude:       -31.3223 
longitude:      -71.5464 
depth:           25.3568 
Mrr:        1.023910e+24 
Mtt:       -2.043675e+26 
Mpp:        2.033436e+26 
Mrt:        7.432900e+24 
Mrp:        1.680276e+25 
Mtp:        2.587312e+26 
PDE 2015  9 16 22 54 32.90 -31.5700  -71.6700  22.4 0.0 8.3 NEAR COAST OF CENTRAL CH                
event name:     201509162254A  
time shift:      23.8916 
half duration:    1.5000 
latitude:       -31.8323 
longitude:      -71.3162 
depth:           35.2128 
Mrr:        3.248350e+21 
Mtt:       -4.270019e+22 
Mpp:        3.945184e+22 
Mrt:       -1.153200e+22 
Mrp:        4.110528e+22 
Mtp:        5.458608e+22 
PDE 2015  9 16 22 54 32.90 -31.5700  -71.6700  22.4 0.0 8.3 NEAR COAST OF CENTRAL CH                
event name:     201509162254A  
time shift:      24.8614 
half duration:    9.0000 
latitude:       -31.9780 
longitude:      -71.4859 
depth:           30.2848 
Mrr:        2.248089e+22 
Mtt:       -3.906417e+23 
Mpp:        3.681608e+23 
Mrt:       -7.429473e+22 
Mrp:        2.863942e+23 
Mtp:        4.981221e+23 
PDE 2015  9 16 22 54 32.90 -31.5700  -71.6700  22.4 0.0 8.3 NEAR COAST OF CENTRAL CH                
event name:     201509162254A  
time shift:      25.8916 
half duration:    6.0000 
latitude:       -31.5118 
longitude:      -71.2726 
depth:           35.2128 
Mrr:       -5.630187e+23 
Mtt:       -4.646418e+25 
Mpp:        4.702720e+25 
Mrt:        5.121612e+24 
Mrp:       -6.039395e+24 
Mtp:        5.868583e+25 
PDE 2015  9 16 22 54 32.90 -31.5700  -71.6700  22.4 0.0 8.3 NEAR COAST OF CENTRAL CH                
event name:     201509162254A  
time shift:      26.9275 
half duration:    9.0000 
latitude:       -31.4388 
longitude:      -72.0117 
depth:           10.5728 
Mrr:        1.096034e+25 
Mtt:       -3.269449e+26 
Mpp:        3.159846e+26 
Mrt:       -2.830858e+25 
Mrp:        1.423784e+26 
Mtp:        4.155352e+26 
PDE 2015  9 16 22 54 32.90 -31.5700  -71.6700  22.4 0.0 8.3 NEAR COAST OF CENTRAL CH                
event name:     201509162254A  
time shift:      27.5349 
half duration:   15.0000 
latitude:       -31.2931 
longitude:      -71.8420 
depth:           15.5008 
Mrr:       -5.018934e+23 
Mtt:       -3.208999e+26 
Mpp:        3.214018e+26 
Mrt:        2.076844e+25 
Mrp:        2.466401e+23 
Mtp:        4.058959e+26 
PDE 2015  9 16 22 54 32.90 -31.5700  -71.6700  22.4 0.0 8.3 NEAR COAST OF CENTRAL CH                
event name:     201509162254A  
time shift:      27.6614 
half duration:    1.5000 
latitude:       -31.3369 
longitude:      -71.3986 
depth:           30.2848 
Mrr:        7.230635e+24 
Mtt:       -9.579454e+25 
Mpp:        8.856390e+25 
Mrt:       -2.562628e+25 
Mrp:        9.151295e+25 
Mtp:        1.224497e+26 
PDE 2015  9 16 22 54 32.90 -31.5700  -71.6700  22.4 0.0 8.3 NEAR COAST OF CENTRAL CH                
event name:     201509162254A  
time shift:      28.2614 
half duration:    1.5000 
latitude:       -31.9196 
longitude:      -72.0771 
depth:           10.5728 
Mrr:        3.204751e+24 
Mtt:       -5.876478e+25 
Mpp:        5.556003e+25 
Mrt:       -1.041265e+25 
Mrp:        4.088874e+25 
Mtp:        7.490244e+25 
PDE 2015  9 16 22 54 32.90 -31.5700  -71.6700  22.4 0.0 8.3 NEAR COAST OF CENTRAL CH                
event name:     201509162254A  
time shift:      28.8790 
half duration:    1.5000 
latitude:       -31.6867 
longitude:      -71.1466 
depth:           40.1408 
Mrr:       -8.166045e+23 
Mtt:       -5.735515e+25 
Mpp:        5.817175e+25 
Mrt:        6.846530e+24 
Mrp:       -8.961759e+24 
Mtp:        7.242037e+25 
PDE 2015  9 16 22 54 32.90 -31.5700  -71.6700  22.4 0.0 8.3 NEAR COAST OF CENTRAL CH                
event name:     201509162254A  
time shift:      29.7442 
half duration:    1.5000 
latitude:       -31.9926 
longitude:      -71.3380 
depth:           35.2128 
Mrr:       -1.074304e+21 
Mtt:       -2.881250e+23 
Mpp:        2.891993e+23 
Mrt:        2.133666e+22 
Mrp:       -7.505450e+21 
Mtp:        3.643316e+23 
PDE 2015  9 16 22 54 32.90 -31.5700  -71.6700  22.4 0.0 8.3 NEAR COAST OF CENTRAL CH                
event name:     201509162254A  
time shift:      29.9325 
half duration:    1.5000 
latitude:       -31.8469 
longitude:      -71.1684 
depth:           40.1408 
Mrr:        9.659279e+21 
Mtt:       -1.608217e+24 
Mpp:        1.598558e+24 
Mrt:        5.158364e+22 
Mrp:        1.520713e+23 
Mtp:        2.036297e+24 
PDE 2015  9 16 22 54 32.90 -31.5700  -71.6700  22.4 0.0 8.3 NEAR COAST OF CENTRAL CH                
event name:     201509162254A  
time shift:      31.1131 
half duration:    7.5000 
latitude:       -32.1091 
longitude:      -71.8033 
depth:           20.4288 
Mrr:       -8.945697e+22 
Mtt:       -6.084818e+24 
Mpp:        6.174275e+24 
Mrt:        7.385239e+23 
Mrp:       -9.857329e+23 
Mtp:        7.682599e+24 
PDE 2015  9 16 22 54 32.90 -31.5700  -71.6700  22.4 0.0 8.3 NEAR COAST OF CENTRAL CH                
event name:     201509162254A  
time shift:      31.7325 
half duration:    1.5000 
latitude:       -31.5264 
longitude:      -71.1248 
depth:           40.1408 
Mrr:       -1.399418e+24 
Mtt:       -9.490328e+25 
Mpp:        9.630270e+25 
Mrt:        1.153659e+25 
Mrp:       -1.542602e+25 
Mtp:        1.198227e+26 
PDE 2015  9 16 22 54 32.90 -31.5700  -71.6700  22.4 0.0 8.3 NEAR COAST OF CENTRAL CH                
event name:     201509162254A  
time shift:      32.1261 
half duration:   10.5000 
latitude:       -32.0944 
longitude:      -71.9511 
depth:           15.5008 
Mrr:        9.755279e+20 
Mtt:       -9.214794e+22 
Mpp:        9.117241e+22 
Mrt:        1.135603e+21 
Mrp:        1.394258e+22 
Mtp:        1.167495e+23 
PDE 2015  9 16 22 54 32.90 -31.5700  -71.6700  22.4 0.0 8.3 NEAR COAST OF CENTRAL CH                
event name:     201509162254A  
time shift:      32.5261 
half duration:    7.5000 
latitude:       -32.1236 
longitude:      -71.6555 
depth:           25.3568 
Mrr:       -1.388285e+24 
Mtt:       -9.256356e+25 
Mpp:        9.395184e+25 
Mrt:        1.135294e+25 
Mrp:       -1.533522e+25 
Mtp:        1.168646e+26 
PDE 2015  9 16 22 54 32.90 -31.5700  -71.6700  22.4 0.0 8.3 NEAR COAST OF CENTRAL CH                
event name:     201509162254A  
time shift:      32.7131 
half duration:    1.5000 
latitude:       -31.1475 
longitude:      -71.6724 
depth:           20.4288 
Mrr:       -2.079994e+24 
Mtt:       -2.173019e+26 
Mpp:        2.193819e+26 
Mrt:        2.156743e+25 
Mrp:       -2.139212e+25 
Mtp:        2.745557e+26 
PDE 2015  9 16 22 54 32.90 -31.5700  -71.6700  22.4 0.0 8.3 NEAR COAST OF CENTRAL CH                
event name:     201509162254A  
time shift:      32.9261 
half duration:    1.5000 
latitude:       -31.1621 
longitude:      -71.5246 
depth:           25.3568 
Mrr:       -2.245467e+24 
Mtt:       -2.238669e+26 
Mpp:        2.261124e+26 
Mrt:        2.266160e+25 
Mrp:       -2.330997e+25 
Mtp:        2.828327e+26 
PDE 2015  9 16 22 54 32.90 -31.5700  -71.6700  22.4 0.0 8.3 NEAR COAST OF CENTRAL CH                
event name:     201509162254A  
time shift:      33.1442 
half duration:    1.5000 
latitude:       -31.3515 
longitude:      -71.2508 
depth:           35.2128 
Mrr:       -3.617048e+23 
Mtt:       -2.416897e+25 
Mpp:        2.453068e+25 
Mrt:        2.960941e+24 
Mrp:       -3.994395e+24 
Mtp:        3.051427e+25 
PDE 2015  9 16 22 54 32.90 -31.5700  -71.6700  22.4 0.0 8.3 NEAR COAST OF CENTRAL CH                
event name:     201509162254A  
time shift:      33.6916 
half duration:   15.0000 
latitude:       -31.7447 
longitude:      -72.2031 
depth:            5.6448 
Mrr:        1.978696e+25 
Mtt:       -2.514819e+26 
Mpp:        2.316950e+26 
Mrt:       -7.074572e+25 
Mrp:        2.502145e+26 
Mtp:        3.215976e+26 
PDE 2015  9 16 22 54 32.90 -31.5700  -71.6700  22.4 0.0 8.3 NEAR COAST OF CENTRAL CH                
event name:     201509162254A  
time shift:      33.7092 
half duration:   15.0000 
latitude:       -31.5845 
longitude:      -72.1813 
depth:            5.6448 
Mrr:        2.208860e+25 
Mtt:       -2.838354e+26 
Mpp:        2.617468e+26 
Mrt:       -7.879515e+25 
Mrp:        2.793821e+26 
Mtp:        3.629291e+26 
PDE 2015  9 16 22 54 32.90 -31.5700  -71.6700  22.4 0.0 8.3 NEAR COAST OF CENTRAL CH                
event name:     201509162254A  
time shift:      34.4614 
half duration:    1.5000 
latitude:       -31.2785 
longitude:      -71.9898 
depth:           10.5728 
Mrr:        5.780270e+24 
Mtt:       -3.744619e+26 
Mpp:        3.686816e+26 
Mrt:       -3.216268e+24 
Mrp:        7.915782e+25 
Mtp:        4.747507e+26 
PDE 2015  9 16 22 54 32.90 -31.5700  -71.6700  22.4 0.0 8.3 NEAR COAST OF CENTRAL CH                
event name:     201509162254A  
time shift:      35.0042 
half duration:    7.5000 
latitude:       -32.0798 
longitude:      -72.0989 
depth:           10.5728 
Mrr:        4.415476e+23 
Mtt:       -5.771213e+24 
Mpp:        5.329665e+24 
Mrt:       -1.569457e+24 
Mrp:        5.586767e+24 
Mtp:        7.378105e+24 
PDE 2015  9 16 22 54 32.90 -31.5700  -71.6700  22.4 0.0 8.3 NEAR COAST OF CENTRAL CH                
event name:     201509162254A  
time shift:      35.0550 
half duration:    7.5000 
latitude:       -32.0072 
longitude:      -71.1902 
depth:           40.1408 
Mrr:        6.766132e+23 
Mtt:       -1.032064e+25 
Mpp:        9.644032e+24 
Mrt:       -2.319354e+24 
Mrp:        8.590737e+24 
Mtp:        1.317461e+25 
PDE 2015  9 16 22 54 32.90 -31.5700  -71.6700  22.4 0.0 8.3 NEAR COAST OF CENTRAL CH                
event name:     201509162254A  
time shift:      35.1442 
half duration:    3.0000 
latitude:       -31.9050 
longitude:      -72.2249 
depth:            5.6448 
Mrr:        1.386653e+25 
Mtt:       -1.754761e+26 
Mpp:        1.616096e+26 
Mrt:       -4.962208e+25 
Mrp:        1.753329e+26 
Mtp:        2.244110e+26 
PDE 2015  9 16 22 54 32.90 -31.5700  -71.6700  22.4 0.0 8.3 NEAR COAST OF CENTRAL CH                
event name:     201509162254A  
time shift:      35.2042 
half duration:    1.5000 
latitude:       -32.1383 
longitude:      -71.5077 
depth:           30.2848 
Mrr:        2.419800e+24 
Mtt:       -3.117885e+25 
Mpp:        2.875905e+25 
Mrt:       -8.627073e+24 
Mrp:        3.060794e+25 
Mtp:        3.986601e+25 
PDE 2015  9 16 22 54 32.90 -31.5700  -71.6700  22.4 0.0 8.3 NEAR COAST OF CENTRAL CH                
event name:     201509162254A  
time shift:      35.3261 
half duration:    7.5000 
latitude:       -31.1329 
longitude:      -71.8202 
depth:           15.5008 
Mrr:        8.306123e+24 
Mtt:       -3.980019e+26 
Mpp:        3.896958e+26 
Mrt:       -1.274352e+25 
Mrp:        1.109258e+26 
Mtp:        5.049710e+26 
PDE 2015  9 16 22 54 32.90 -31.5700  -71.6700  22.4 0.0 8.3 NEAR COAST OF CENTRAL CH                
event name:     201509162254A  
time shift:      36.4916 
half duration:    1.5000 
latitude:       -31.4242 
longitude:      -72.1595 
depth:            5.6448 
Mrr:        1.544164e+25 
Mtt:       -3.087760e+26 
Mpp:        2.933343e+26 
Mrt:       -4.868618e+25 
Mrp:        1.975329e+26 
Mtp:        3.933275e+26 
PDE 2015  9 16 22 54 32.90 -31.5700  -71.6700  22.4 0.0 8.3 NEAR COAST OF CENTRAL CH                
event name:     201509162254A  
time shift:      37.2042 
half duration:   15.0000 
latitude:       -31.1767 
longitude:      -71.3768 
depth:           30.2848 
Mrr:        7.624610e+24 
Mtt:       -1.622846e+26 
Mpp:        1.546600e+26 
Mrt:       -2.347041e+25 
Mrp:        9.773356e+25 
Mtp:        2.066374e+26 
PDE 2015  9 16 22 54 32.90 -31.5700  -71.6700  22.4 0.0 8.3 NEAR COAST OF CENTRAL CH                
event name:     201509162254A  
time shift:      38.5921 
half duration:    1.5000 
latitude:       -32.1529 
longitude:      -71.3599 
depth:           35.2128 
Mrr:        7.082959e+22 
Mtt:       -9.580014e+23 
Mpp:        8.871718e+23 
Mrt:       -2.498914e+23 
Mrp:        8.968345e+23 
Mtp:        1.224311e+24 
PDE 2015  9 16 22 54 32.90 -31.5700  -71.6700  22.4 0.0 8.3 NEAR COAST OF CENTRAL CH                
event name:     201509162254A  
time shift:      38.7921 
half duration:   15.0000 
latitude:       -32.0652 
longitude:      -72.2467 
depth:            5.6448 
Mrr:        8.893888e+24 
Mtt:       -1.173483e+26 
Mpp:        1.084544e+26 
Mrt:       -3.154898e+25 
Mrp:        1.125539e+26 
Mtp:        1.500072e+26 
PDE 2015  9 16 22 54 32.90 -31.5700  -71.6700  22.4 0.0 8.3 NEAR COAST OF CENTRAL CH                
event name:     201509162254A  
time shift:      38.8550 
half duration:   13.5000 
latitude:       -31.3661 
longitude:      -71.1030 
depth:           40.1408 
Mrr:       -7.074023e+23 
Mtt:       -4.765677e+25 
Mpp:        4.836418e+25 
Mrt:        5.813364e+24 
Mrp:       -7.804193e+24 
Mtp:        6.016955e+25 
PDE 2015  9 16 22 54 32.90 -31.5700  -71.6700  22.4 0.0 8.3 NEAR COAST OF CENTRAL CH                
event name:     201509162254A  
time shift:      40.4042 
half duration:    4.5000 
latitude:       -31.1183 
longitude:      -71.9680 
depth:           10.5728 
Mrr:        3.723110e+24 
Mtt:       -3.880359e+26 
Mpp:        3.843128e+26 
Mrt:        6.441577e+24 
Mrp:        5.394433e+25 
Mtp:        4.915663e+26 
PDE 2015  9 16 22 54 32.90 -31.5700  -71.6700  22.4 0.0 8.3 NEAR COAST OF CENTRAL CH                
event name:     201509162254A  
time shift:      41.1325 
half duration:    9.0000 
latitude:       -31.7301 
longitude:      -72.3509 
depth:            0.7168 
Mrr:        1.821578e+25 
Mtt:       -2.319890e+26 
Mpp:        2.137732e+26 
Mrt:       -6.510059e+25 
Mrp:        2.303559e+26 
Mtp:        2.966633e+26 
PDE 2015  9 16 22 54 32.90 -31.5700  -71.6700  22.4 0.0 8.3 NEAR COAST OF CENTRAL CH                
event name:     201509162254A  
time shift:      41.2550 
half duration:   15.0000 
latitude:       -31.8904 
longitude:      -72.3727 
depth:            0.7168 
Mrr:        1.513124e+25 
Mtt:       -1.937622e+26 
Mpp:        1.786309e+26 
Mrt:       -5.401561e+25 
Mrp:        1.913702e+26 
Mtp:        2.477651e+26 
PDE 2015  9 16 22 54 32.90 -31.5700  -71.6700  22.4 0.0 8.3 NEAR COAST OF CENTRAL CH                
event name:     201509162254A  
time shift:      41.7442 
half duration:   15.0000 
latitude:       -31.2639 
longitude:      -72.1376 
depth:            5.6448 
Mrr:        1.183196e+25 
Mtt:       -3.106689e+26 
Mpp:        2.988369e+26 
Mrt:       -3.301079e+25 
Mrp:        1.528494e+26 
Mtp:        3.950951e+26 
PDE 2015  9 16 22 54 32.90 -31.5700  -71.6700  22.4 0.0 8.3 NEAR COAST OF CENTRAL CH                
event name:     201509162254A  
time shift:      41.7921 
half duration:    4.5000 
latitude:       -31.1913 
longitude:      -71.2290 
depth:           35.2128 
Mrr:       -8.817723e+23 
Mtt:       -6.000674e+25 
Mpp:        6.088851e+25 
Mrt:        7.281272e+24 
Mrp:       -9.715729e+24 
Mtp:        7.576368e+25 
PDE 2015  9 16 22 54 32.90 -31.5700  -71.6700  22.4 0.0 8.3 NEAR COAST OF CENTRAL CH                
event name:     201509162254A  
time shift:      42.2842 
half duration:   10.5000 
latitude:       -30.9872 
longitude:      -71.6506 
depth:           20.4288 
Mrr:       -1.879881e+24 
Mtt:       -1.332076e+26 
Mpp:        1.350875e+26 
Mrt:        1.582914e+25 
Mrp:       -2.060698e+25 
Mtp:        1.681996e+26 
PDE 2015  9 16 22 54 32.90 -31.5700  -71.6700  22.4 0.0 8.3 NEAR COAST OF CENTRAL CH                
event name:     201509162254A  
time shift:      42.3406 
half duration:    1.5000 
latitude:       -32.0506 
longitude:      -72.3945 
depth:            0.7168 
Mrr:        1.091302e+25 
Mtt:       -1.399057e+26 
Mpp:        1.289927e+26 
Mrt:       -3.894813e+25 
Mrp:        1.380241e+26 
Mtp:        1.788963e+26 
PDE 2015  9 16 22 54 32.90 -31.5700  -71.6700  22.4 0.0 8.3 NEAR COAST OF CENTRAL CH                
event name:     201509162254A  
time shift:      42.4790 
half duration:   15.0000 
latitude:       -31.5699 
longitude:      -72.3291 
depth:            0.7168 
Mrr:        1.895367e+25 
Mtt:       -2.406841e+26 
Mpp:        2.217305e+26 
Mrt:       -6.777841e+25 
Mrp:        2.396730e+26 
Mtp:        3.077921e+26 
PDE 2015  9 16 22 54 32.90 -31.5700  -71.6700  22.4 0.0 8.3 NEAR COAST OF CENTRAL CH                
event name:     201509162254A  
time shift:      42.6988 
half duration:    9.0000 
latitude:       -30.9726 
longitude:      -71.7984 
depth:           15.5008 
Mrr:        6.979109e+24 
Mtt:       -3.940194e+26 
Mpp:        3.870403e+26 
Mrt:       -7.252058e+24 
Mrp:        9.440468e+25 
Mtp:        4.997020e+26 
PDE 2015  9 16 22 54 32.90 -31.5700  -71.6700  22.4 0.0 8.3 NEAR COAST OF CENTRAL CH                
event name:     201509162254A  
time shift:      42.7406 
half duration:    4.5000 
latitude:       -32.1675 
longitude:      -71.2121 
depth:           40.1408 
Mrr:       -1.224825e+23 
Mtt:       -1.524834e+25 
Mpp:        1.537082e+25 
Mrt:        1.412192e+24 
Mrp:       -1.210293e+24 
Mtp:        1.926999e+25 
PDE 2015  9 16 22 54 32.90 -31.5700  -71.6700  22.4 0.0 8.3 NEAR COAST OF CENTRAL CH                
event name:     201509162254A  
time shift:      43.0988 
half duration:    1.5000 
latitude:       -32.2547 
longitude:      -71.9729 
depth:           15.5008 
Mrr:        2.990132e+21 
Mtt:       -7.240668e+23 
Mpp:        7.210766e+23 
Mrt:        2.908372e+22 
Mrp:        5.163280e+22 
Mtp:        9.165648e+23 
PDE 2015  9 16 22 54 32.90 -31.5700  -71.6700  22.4 0.0 8.3 NEAR COAST OF CENTRAL CH                
event name:     201509162254A  
time shift:      43.4842 
half duration:   15.0000 
latitude:       -32.2693 
longitude:      -71.8251 
depth:           20.4288 
Mrr:       -4.532008e+23 
Mtt:       -3.321374e+25 
Mpp:        3.366694e+25 
Mrt:        3.879860e+24 
Mrp:       -4.945760e+24 
Mtp:        4.194126e+25 
PDE 2015  9 16 22 54 32.90 -31.5700  -71.6700  22.4 0.0 8.3 NEAR COAST OF CENTRAL CH                
event name:     201509162254A  
time shift:      43.6698 
half duration:    4.5000 
latitude:       -32.2401 
longitude:      -72.1207 
depth:           10.5728 
Mrr:       -6.424925e+23 
Mtt:       -4.620941e+25 
Mpp:        4.685190e+25 
Mrt:        5.449549e+24 
Mrp:       -7.029159e+24 
Mtp:        5.834970e+25 
PDE 2015  9 16 22 54 32.90 -31.5700  -71.6700  22.4 0.0 8.3 NEAR COAST OF CENTRAL CH                
event name:     201509162254A  
time shift:      43.6988 
half duration:   10.5000 
latitude:       -31.0018 
longitude:      -71.5028 
depth:           25.3568 
Mrr:       -1.815094e+24 
Mtt:       -1.222917e+26 
Mpp:        1.241068e+26 
Mrt:        1.491692e+25 
Mrp:       -2.002422e+25 
Mtp:        1.544007e+26 
PDE 2015  9 16 22 54 32.90 -31.5700  -71.6700  22.4 0.0 8.3 NEAR COAST OF CENTRAL CH                
event name:     201509162254A  
time shift:      44.6988 
half duration:   15.0000 
latitude:       -32.2839 
longitude:      -71.6773 
depth:           25.3568 
Mrr:       -2.098026e+24 
Mtt:       -1.425605e+26 
Mpp:        1.446585e+26 
Mrt:        1.731206e+25 
Mrp:       -2.312125e+25 
Mtp:        1.799944e+26 
PDE 2015  9 16 22 54 32.90 -31.5700  -71.6700  22.4 0.0 8.3 NEAR COAST OF CENTRAL CH                
event name:     201509162254A  
time shift:      45.3325 
half duration:   15.0000 
latitude:       -31.4096 
longitude:      -72.3073 
depth:            0.7168 
Mrr:        1.596053e+25 
Mtt:       -2.596974e+26 
Mpp:        2.437369e+26 
Mrt:       -5.376909e+25 
Mrp:        2.029729e+26 
Mtp:        3.313264e+26 
PDE 2015  9 16 22 54 32.90 -31.5700  -71.6700  22.4 0.0 8.3 NEAR COAST OF CENTRAL CH                
event name:     201509162254A  
time shift:      45.4160 
half duration:   10.5000 
latitude:       -32.2255 
longitude:      -72.2685 
depth:            5.6448 
Mrr:        8.063149e+24 
Mtt:       -1.040983e+26 
Mpp:        9.603516e+25 
Mrt:       -2.873483e+25 
Mrp:        1.019946e+26 
Mtp:        1.330998e+26 
PDE 2015  9 16 22 54 32.90 -31.5700  -71.6700  22.4 0.0 8.3 NEAR COAST OF CENTRAL CH                
event name:     201509162254A  
time shift:      45.6698 
half duration:    1.5000 
latitude:       -30.9580 
longitude:      -71.9462 
depth:           10.5728 
Mrr:       -3.273124e+24 
Mtt:       -3.968694e+26 
Mpp:        4.001425e+26 
Mrt:        3.712288e+25 
Mrp:       -3.255673e+25 
Mtp:        5.015264e+26 
PDE 2015  9 16 22 54 32.90 -31.5700  -71.6700  22.4 0.0 8.3 NEAR COAST OF CENTRAL CH                
event name:     201509162254A  
time shift:      45.7921 
half duration:   10.5000 
latitude:       -31.1037 
longitude:      -72.1158 
depth:            5.6448 
Mrr:        9.504541e+24 
Mtt:       -2.980302e+26 
Mpp:        2.885256e+26 
Mrt:       -2.370721e+25 
Mrp:        1.237595e+26 
Mtp:        3.787011e+26 
PDE 2015  9 16 22 54 32.90 -31.5700  -71.6700  22.4 0.0 8.3 NEAR COAST OF CENTRAL CH                
event name:     201509162254A  
time shift:      46.8698 
half duration:    3.0000 
latitude:       -32.2985 
longitude:      -71.5295 
depth:           30.2848 
Mrr:       -1.052334e+24 
Mtt:       -7.147199e+25 
Mpp:        7.252433e+25 
Mrt:        8.681466e+24 
Mrp:       -1.159790e+25 
Mtp:        9.023919e+25 
PDE 2015  9 16 22 54 32.90 -31.5700  -71.6700  22.4 0.0 8.3 NEAR COAST OF CENTRAL CH                
event name:     201509162254A  
time shift:      46.8698 
half duration:   15.0000 
latitude:       -31.0164 
longitude:      -71.3550 
depth:           30.2848 
Mrr:        1.998701e+24 
Mtt:       -7.525503e+25 
Mpp:        7.325633e+25 
Mrt:       -4.255893e+24 
Mrp:        2.627874e+25 
Mtp:        9.555536e+25 
PDE 2015  9 16 22 54 32.90 -31.5700  -71.6700  22.4 0.0 8.3 NEAR COAST OF CENTRAL CH                
event name:     201509162254A  
time shift:      47.1406 
half duration:   15.0000 
latitude:       -31.2059 
longitude:      -71.0812 